object.cnt: Spatial object counts - 2-stage
NAME     AREA_LS_HA     AREA_TOT_HA  OBJ  HRU  LTE    RU MODFLOW  AQU CHA   RES REC   EXCO  DR CANAL PUMP OUT  CHANDEG 2DAQU
ceap2        25.3          25.3      14    4    0     2       0     1   0     1   1      0   0     0    0   0        5     0



  









