aqu_catunit.ele: written by SWAT+ editor v1.3.0 on 2021-02-03 12:56
      id  name                   obj_typ  obj_typ_no      bsn_frac      sub_frac      reg_frac  
       1  aqu010                     aqu           1       0.15933       0.00000       0.00000  
       2  aqu020                     aqu           2       0.21559       0.00000       0.00000  
       3  aqu030                     aqu           3       0.11128       0.00000       0.00000  
       4  aqu040                     aqu           4       0.07813       0.00000       0.00000  
       5  aqu050                     aqu           5       0.14976       0.00000       0.00000  
       6  aqu060                     aqu           6       0.11388       0.00000       0.00000  
       7  aqu070                     aqu           7       0.09867       0.00000       0.00000  
       8  aqu080                     aqu           8       0.01543       0.00000       0.00000  
       9  aqu090                     aqu           9       0.02716       0.00000       0.00000  
      10  aqu100                     aqu          10       0.01978       0.00000       0.00000  
      11  aqu110                     aqu          11       0.01100       0.00000       0.00000  
      12  aqu_deep011                aqu          12       1.00000       0.00000       0.00000  
