aquifer.con: written by SWAT+ editor v1.3.0 on 2021-02-03 12:56
      id  name                gis_id          area           lat           lon          elev       aqu               wst       cst      ovfl      rule   out_tot       obj_typ    obj_id       hyd_typ          frac  
       1  aqu010                  10    3699.44424      -3.32094      36.88326    1381.00000         1      sta338s3687e         0         0         0         2           sdc        10           tot       1.00000           aqu        12           rhg       1.00000  
       2  aqu020                  20    5005.63958      -3.30431      36.85034    1569.00000         2      sta338s3687e         0         0         0         2           sdc         1           tot       1.00000           aqu        12           rhg       1.00000  
       3  aqu030                  30    2583.76148      -3.34297      36.78556    1506.00000         3      sta338s3687e         0         0         0         2           sdc        11           tot       1.00000           aqu        12           rhg       1.00000  
       4  aqu040                  40    1814.19718      -3.33117      36.81399    1532.00000         4      sta338s3687e         0         0         0         2           sdc         7           tot       1.00000           aqu        12           rhg       1.00000  
       5  aqu050                  50    3477.16371      -3.32810      36.79320    1627.00000         5      sta338s3687e         0         0         0         2           sdc         7           tot       1.00000           aqu        12           rhg       1.00000  
       6  aqu060                  60    2644.25374      -3.31547      36.82681    1681.00000         6      sta338s3687e         0         0         0         2           sdc         1           tot       1.00000           aqu        12           rhg       1.00000  
       7  aqu070                  70    2291.00176      -3.39297      36.84746    1141.00000         7      sta338s3687e         0         0         0         2           sdc        11           tot       1.00000           aqu        12           rhg       1.00000  
       8  aqu080                  80     358.29301      -3.37478      36.86957    1139.00000         8      sta338s3687e         0         0         0         2           sdc        10           tot       1.00000           aqu        12           rhg       1.00000  
       9  aqu090                  90     630.50819      -3.40410      36.87198    1096.00000         9      sta338s3687e         0         0         0         2           sdc         9           tot       1.00000           aqu        12           rhg       1.00000  
      10  aqu100                 100     459.20856      -3.42168      36.83450    1092.00000        10      sta338s3687e         0         0         0         2           sdc         9           tot       1.00000           aqu        12           rhg       1.00000  
      11  aqu110                 110     255.38007      -3.44038      36.84795    1035.00000        11      sta338s3687e         0         0         0         1           aqu        12           rhg       1.00000  
      12  aqu_deep011             11   23218.85152      -3.33456      36.83456    1473.56779        12      sta338s3687e         0         0         0         0  
