aquifer.aqu: written by SWAT+ editor v1.3.0 on 2021-02-03 12:56
      id  name                          init        gw_flo       dep_bot        dep_wt         no3_n         sol_p        carbon      flo_dist        bf_max      alpha_bf         revap       rchg_dp      spec_yld       hl_no3n       flo_min     revap_min  
       1  aqu010                    initaqu1       0.05000      10.00000       3.00000       0.00000       0.00000       0.50000      50.00000       1.00000       0.05000       0.02000       0.05000       0.05000       0.00000       3.00000       5.00000  
       2  aqu020                    initaqu1       0.05000      10.00000       3.00000       0.00000       0.00000       0.50000      50.00000       1.00000       0.05000       0.02000       0.05000       0.05000       0.00000       3.00000       5.00000  
       3  aqu030                    initaqu1       0.05000      10.00000       3.00000       0.00000       0.00000       0.50000      50.00000       1.00000       0.05000       0.02000       0.05000       0.05000       0.00000       3.00000       5.00000  
       4  aqu040                    initaqu1       0.05000      10.00000       3.00000       0.00000       0.00000       0.50000      50.00000       1.00000       0.05000       0.02000       0.05000       0.05000       0.00000       3.00000       5.00000  
       5  aqu050                    initaqu1       0.05000      10.00000       3.00000       0.00000       0.00000       0.50000      50.00000       1.00000       0.05000       0.02000       0.05000       0.05000       0.00000       3.00000       5.00000  
       6  aqu060                    initaqu1       0.05000      10.00000       3.00000       0.00000       0.00000       0.50000      50.00000       1.00000       0.05000       0.02000       0.05000       0.05000       0.00000       3.00000       5.00000  
       7  aqu070                    initaqu1       0.05000      10.00000       3.00000       0.00000       0.00000       0.50000      50.00000       1.00000       0.05000       0.02000       0.05000       0.05000       0.00000       3.00000       5.00000  
       8  aqu080                    initaqu1       0.05000      10.00000       3.00000       0.00000       0.00000       0.50000      50.00000       1.00000       0.05000       0.02000       0.05000       0.05000       0.00000       3.00000       5.00000  
       9  aqu090                    initaqu1       0.05000      10.00000       3.00000       0.00000       0.00000       0.50000      50.00000       1.00000       0.05000       0.02000       0.05000       0.05000       0.00000       3.00000       5.00000  
      10  aqu100                    initaqu1       0.05000      10.00000       3.00000       0.00000       0.00000       0.50000      50.00000       1.00000       0.05000       0.02000       0.05000       0.05000       0.00000       3.00000       5.00000  
      11  aqu110                    initaqu1       0.05000      10.00000       3.00000       0.00000       0.00000       0.50000      50.00000       1.00000       0.05000       0.02000       0.05000       0.05000       0.00000       3.00000       5.00000  
      12  aqu_deep011               initaqu1       0.00000     100.00000      20.00000       0.00000       0.00000       0.50000      50.00000       1.00000       0.01000       0.00000       0.00000       0.03000       0.00000       0.00000       0.00000  
