chandeg.con: written by SWAT+ editor v1.3.0 on 2021-02-03 12:56
      id  name                gis_id          area           lat           lon          elev      lcha               wst       cst      ovfl      rule   out_tot       obj_typ    obj_id       hyd_typ          frac  
       1  cha01                    1    8008.18640      -3.38738      36.86826             0         1      sta338s3687e         0         0         0         1           sdc        10           tot       1.00000  
       2  cha02                    2    5005.63960      -3.33859      36.86740             0         2      sta338s3687e         0         0         0         1           sdc         1           tot       1.00000  
       3  cha03                    3    3699.44440      -3.36107      36.88538             0         3      sta338s3687e         0         0         0         1           sdc        10           tot       1.00000  
       4  cha04                    4    2644.25380      -3.36030      36.85029             0         4      sta338s3687e         0         0         0         1           sdc         1           tot       1.00000  
       5  cha05                    5    1814.19720      -3.38898      36.83594             0         5      sta338s3687e         0         0         0         1           sdc         7           tot       1.00000  
       6  cha06                    6    3477.16360      -3.37542      36.81752             0         6      sta338s3687e         0         0         0         1           sdc         7           tot       1.00000  
       7  cha07                    7    7582.36240      -3.41242      36.84435             0         7      sta338s3687e         0         0         0         1           sdc        11           tot       1.00000  
       8  cha08                    8    2583.76140      -3.40444      36.82841             0         8      sta338s3687e         0         0         0         1           sdc        11           tot       1.00000  
       9  cha09                    9   23196.21440      -3.44410      36.85690             0         9      sta338s3687e         0         0         0         0  
      10  cha10                   10   12338.13840      -3.41651      36.86209             0        10      sta338s3687e         0         0         0         1           sdc         9           tot       1.00000  
      11  cha11                   11   10625.33280      -3.43740      36.85414             0        11      sta338s3687e         0         0         0         1           sdc         9           tot       1.00000  
