codes.bsn: written by SWAT+ Toolbox
        pet_file           wq_file       pet     event     crack    rtu_wq   sed_det   rte_cha   deg_cha    wq_cha  rte_pest        cn    c_fact    carbon   baseflo      uhyd   sed_cha  tiledrain    wtable    soil_p  abstr_init   atmo_dep  stor_max  headwater  
            null              null         2         0         0         1         0         0         0         1         0         0         0         0         0         1         0         0         0         0         0          a         0         0  
