exco.exc: written by SWAT+ editor v1.3.0 on 2021-02-03 12:56
name                            om              pest              path              hmet              salt  
pt03                          pt03              null              null              null              null  
pt05                          pt05              null              null              null              null  
pt07                          pt07              null              null              null              null  
pt09                          pt09              null              null              null              null  
pt11                          pt11              null              null              null              null  
pt13                          pt13              null              null              null              null  
pt15                          pt15              null              null              null              null  
pt17                          pt17              null              null              null              null  
pt18                          pt18              null              null              null              null  
pt20                          pt20              null              null              null              null  
pt22                          pt22              null              null              null              null  
