flo_con.dtl: written by SWAT+ editor v1.3.0 on 2021-02-03 12:56
11

name                     conds      alts      acts  
sat_buffer                   1         1         1  
var                        obj   obj_num           lim_var            lim_op     lim_const      alt1  
tile_flo                   hru         0              null                 -       0.00000         >  
act_typ                    obj   obj_num              name            option         const        const2                fp  outcome           
flow_control            hrucon         1       buffer_tile           min_flo       5.00000       0.00000              null  y   

name                     conds      alts      acts  
aqu_only                     2         1         1  
var                        obj   obj_num           lim_var            lim_op     lim_const      alt1  
irr_demand                 hru         2              null                 -       0.00000         >  
aqu_dep                    aqu         1              null                 -      30.00000         <  
act_typ                    obj   obj_num              name            option         const        const2                fp  outcome           
irrigate                   hru         2      aquifer_only              null       0.00000       0.00000              null  y   

name                     conds      alts      acts  
cha_only                     2         1         1  
var                        obj   obj_num           lim_var            lim_op     lim_const      alt1  
irr_demand                 hru         2              null                 -       0.00000         >  
cha_flo                    cha         2            demand                 -       1.10000         >  
act_typ                    obj   obj_num              name            option         const        const2                fp  outcome           
irrigate                   hru         2      channel_only              null       0.00000       0.00000              null  y   

name                     conds      alts      acts  
cha_aqu_backup               3         2         2  
var                        obj   obj_num           lim_var            lim_op     lim_const      alt1      alt2  
irr_demand                 hru         2              null                 -       0.00000         >         >  
cha_flo                    cha         2            demand                 -       1.10000         >         <  
aqu_dep                    cha         2           aqu_dep                 -      30.00000         -         <  
act_typ                    obj   obj_num              name            option         const        const2                fp  outcome           
irrigate                   hru         2           channel              null       0.00000       0.00000              null  y   n   
irrigate                   hru         2           aquifer              null       0.00000       0.00000              null  n   y   

name                     conds      alts      acts  
res_only                     2         1         1  
var                        obj   obj_num           lim_var            lim_op     lim_const      alt1  
irr_demand                 hru         2              null                 -       0.00000         >  
vol                        res         1              pvol                 *       0.70000         >  
act_typ                    obj   obj_num              name            option         const        const2                fp  outcome           
irrigate                   hru         2    reservoir_only              null       0.00000       0.00000              null  y   

name                     conds      alts      acts  
res_aqu_backup               3         2         2  
var                        obj   obj_num           lim_var            lim_op     lim_const      alt1      alt2  
irr_demand                 hru         2              null                 -       0.00000         >         >  
vol                        res         1              pvol                 *       0.70000         >         <  
aqu_dep                    cha         2           aqu_dep                 -      30.00000         -         <  
act_typ                    obj   obj_num              name            option         const        const2                fp  outcome           
irrigate                   hru         2         reservoir              null       0.00000       0.00000              null  y   n   
irrigate                   hru         2           aquifer              null       0.00000       0.00000              null  n   y   

name                     conds      alts      acts  
ch_diver_min_flo             2         2         3  
var                        obj   obj_num           lim_var            lim_op     lim_const      alt1      alt2  
irr_demand                 hru         2              null                 -       0.00000         -         >  
cha_flo                    cha         3           min+dmd                 *       1.00000         <         >  
act_typ                    obj   obj_num              name            option         const        const2                fp  outcome           
irrigate                   hru         2          irrigate              null       0.00000       0.00000              null  n   y   
flow_control             chcon         1           all_min           all_flo       0.00000       0.00000              null  y   n   
flow_control             chcon         1           all_min          rest_flo       0.00000       0.00000              null  n   y   

name                     conds      alts      acts  
ch_div_part_dmd              3         3         3  
var                        obj   obj_num           lim_var            lim_op     lim_const      alt1      alt2      alt3  
irr_demand                 hru         2               cha                 -       1.00000         -         >         =  
irr_demand                 hru         3               cha                 -       2.00000         -         =         >  
cha_flo                    cha         1           dmd_tot                 -       0.00000         <         >         >  
act_typ                    obj   obj_num              name            option         const        const2                fp  outcome           
flow_control            chacon         1           channel          part_dmd       0.00000       0.00000              null  y   n   n   
flow_control            chacon         1           channel           all_flo       0.00000       0.00000              null  n   y   n   
flow_control            chacon         2           channel           all_flo       0.00000       0.00000              null  n   n   y   

name                     conds      alts      acts  
ch_div_high_dmd              3         3         3  
var                        obj   obj_num           lim_var            lim_op     lim_const      alt1      alt2      alt3  
irr_demand                 hru         2               cha                 -       1.00000         -         >         =  
irr_demand                 hru         3               cha                 -       2.00000         -         =         >  
cha_flo                    cha         1           dmd_tot                 -       0.00000         <         >         >  
act_typ                    obj   obj_num              name            option         const        const2                fp  outcome           
flow_control            chacon         1           channel          high_dmd       0.00000       0.00000              null  y   n   n   
flow_control            chacon         1           channel           all_flo       0.00000       0.00000              null  n   y   n   
flow_control            chacon         2           channel           all_flo       0.00000       0.00000              null  n   n   y   

name                     conds      alts      acts  
ch_div_part_right            3         3         3  
var                        obj   obj_num           lim_var            lim_op     lim_const      alt1      alt2      alt3  
irr_demand                 hru         2              null                 -       0.00000         >         >         =  
irr_demand                 hru         3              null                 -       0.00000         >         =         >  
cha_flo                    cha         2           dmd_tot                 -       0.00000         >         >         >  
act_typ                    obj   obj_num              name            option         const        const2                fp  outcome           
flow_control            chacon         1           channel        part_right       0.00000       0.00000              null  y   n   n   
flow_control            chacon         1           channel           all_flo       0.00000       0.00000              null  y   y   n   
flow_control            chacon         2           channel           all_flo       0.00000       0.00000              null  y   n   y   

name                     conds      alts      acts  
ch_div_high_right            3         3         3  
var                        obj   obj_num           lim_var            lim_op     lim_const      alt1      alt2      alt3  
irr_demand                 hru         2              null                 -       0.00000         >         >         =  
irr_demand                 wro         1              null                 -       0.00000         >         =         >  
cha_flo                    cha         2           dmd_tot                 -       0.00000         >         >         >  
act_typ                    obj   obj_num              name            option         const        const2                fp  outcome           
flow_control            chacon         1           channel        high_right       0.00000       0.00000              null  y   n   n   
flow_control            chacon         1           channel           all_flo       0.00000       0.00000              null  y   y   n   
flow_control            chacon         2           channel           all_flo       0.00000       0.00000              null  y   n   y   

