hru.con: written by SWAT+ editor v1.3.0 on 2021-02-03 12:56
      id  name                gis_id          area           lat           lon          elev       hru               wst       cst      ovfl      rule   out_tot  
       1  hru001                   1     806.27815      -3.27392      36.86822    1595.39011         1      sta338s3687e         0         0         0         0  
       2  hru002                   2      50.60045      -3.26646      36.87884    1611.28383         2      sta338s3687e         0         0         0         0  
       3  hru003                   3     275.16370      -3.32121      36.88358    1360.97822         3      sta338s3687e         0         0         0         0  
       4  hru004                   4       2.09250      -3.26590      36.87686    1606.77273         4      sta338s3687e         0         0         0         0  
       5  hru005                   5    1128.71333      -3.32627      36.88889    1336.05916         5      sta338s3687e         0         0         0         0  
       6  hru006                   6       1.61693      -3.27093      36.88499    1595.41176         6      sta338s3687e         0         0         0         0  
       7  hru007                   7       0.38045      -3.26416      36.87463    1612.00000         7      sta338s3687e         0         0         0         0  
       8  hru008                   8     364.28516      -3.34437      36.88845    1267.06449         8      sta338s3687e         0         0         0         0  
       9  hru009                   9     377.60107      -3.31830      36.88621    1350.76448         9      sta338s3687e         0         0         0         0  
      10  hru010                  10       0.09511      -3.26542      36.87782    1610.00000        10      sta338s3687e         0         0         0         0  
      11  hru011                  11     140.95838      -3.36333      36.88656    1199.99865        11      sta338s3687e         0         0         0         0  
      12  hru012                  12      71.43033      -3.35755      36.88916    1223.39015        12      sta338s3687e         0         0         0         0  
      13  hru013                  13     426.48947      -3.35929      36.88747    1213.96164        13      sta338s3687e         0         0         0         0  
      14  hru014                  14      29.29499      -3.36395      36.88798    1199.12662        14      sta338s3687e         0         0         0         0  
      15  hru015                  15      17.21557      -3.36409      36.88785    1197.26519        15      sta338s3687e         0         0         0         0  
      16  hru016                  16       5.23125      -3.36316      36.88491    1197.43636        16      sta338s3687e         0         0         0         0  
      17  hru017                  17       0.09511      -3.34991      36.87986    1239.00000        17      sta338s3687e         0         0         0         0  
      18  hru018                  18       1.90227      -3.37111      36.88524    1167.85000        18      sta338s3687e         0         0         0         0  
      19  hru019                  19    2965.73778      -3.28826      36.84064    1765.38764        19      sta338s3687e         0         0         0         0  
      20  hru020                  20     801.52247      -3.32636      36.85541    1399.62644        20      sta338s3687e         0         0         0         0  
      21  hru021                  21     610.72455      -3.32718      36.86890    1343.24217        21      sta338s3687e         0         0         0         0  
      22  hru022                  22     286.86268      -3.32683      36.86935    1335.95690        22      sta338s3687e         0         0         0         0  
      23  hru023                  23      11.41363      -3.33503      36.87306    1302.84167        23      sta338s3687e         0         0         0         0  
      24  hru024                  24      39.47215      -3.34069      36.86904    1276.69880        24      sta338s3687e         0         0         0         0  
      25  hru025                  25     124.88418      -3.32076      36.87664    1361.11196        25      sta338s3687e         0         0         0         0  
      26  hru026                  26      99.01328      -3.33980      36.87253    1284.28915        26      sta338s3687e         0         0         0         0  
      27  hru027                  27      55.92681      -3.33597      36.87258    1296.71769        27      sta338s3687e         0         0         0         0  
      28  hru028                  28       3.99477      -3.32730      36.87778    1345.66667        28      sta338s3687e         0         0         0         0  
      29  hru029                  29       5.70682      -3.34832      36.86374    1251.88333        29      sta338s3687e         0         0         0         0  
      30  hru030                  30       0.38045      -3.32411      36.87859    1362.50000        30      sta338s3687e         0         0         0         0  
      31  hru031                  31     570.96706      -3.29765      36.76596    2404.20740        31      sta338s3687e         0         0         0         0  
      32  hru032                  32     199.16792      -3.32663      36.78950    2297.10840        32      sta338s3687e         0         0         0         0  
      33  hru033                  33     120.50896      -3.33222      36.78284    1887.43410        33      sta338s3687e         0         0         0         0  
      34  hru034                  34     299.51279      -3.37728      36.80739    1295.07494        34      sta338s3687e         0         0         0         0  
      35  hru035                  35     174.72372      -3.38756      36.81301    1238.12412        35      sta338s3687e         0         0         0         0  
      36  hru036                  36      13.03057      -3.36938      36.80285    1466.25547        36      sta338s3687e         0         0         0         0  
      37  hru037                  37      59.06556      -3.37772      36.80708    1306.31723        37      sta338s3687e         0         0         0         0  
      38  hru038                  38     937.43984      -3.34757      36.78069    1556.40584        38      sta338s3687e         0         0         0         0  
      39  hru039                  39     143.52645      -3.37949      36.80354    1289.19417        39      sta338s3687e         0         0         0         0  
      40  hru040                  40      62.77499      -3.34745      36.78275    1595.30909        40      sta338s3687e         0         0         0         0  
      41  hru041                  41       0.95114      -3.37497      36.79022    1294.50000        41      sta338s3687e         0         0         0         0  
      42  hru042                  42       1.80716      -3.38602      36.81258    1206.52632        42      sta338s3687e         0         0         0         0  
      43  hru043                  43       0.28534      -3.38525      36.80894    1212.00000        43      sta338s3687e         0         0         0         0  
      44  hru044                  44     522.64934      -3.29549      36.79729    2237.96415        44      sta338s3687e         0         0         0         0  
      45  hru045                  45      17.97647      -3.34157      36.81615    1705.98942        45      sta338s3687e         0         0         0         0  
      46  hru046                  46     784.49714      -3.33649      36.81810    1493.68550        46      sta338s3687e         0         0         0         0  
      47  hru047                  47      17.50091      -3.34227      36.81660    1503.48913        47      sta338s3687e         0         0         0         0  
      48  hru048                  48      48.50795      -3.34105      36.81368    1567.92549        48      sta338s3687e         0         0         0         0  
      49  hru049                  49      72.28635      -3.36575      36.82722    1241.57237        49      sta338s3687e         0         0         0         0  
      50  hru050                  50      34.90670      -3.36786      36.82791    1237.08719        50      sta338s3687e         0         0         0         0  
      51  hru051                  51     141.05350      -3.36224      36.82586    1263.54012        51      sta338s3687e         0         0         0         0  
      52  hru052                  52     163.02474      -3.36162      36.82704    1264.08926        52      sta338s3687e         0         0         0         0  
      53  hru053                  53      10.93807      -3.37208      36.82967    1213.20000        53      sta338s3687e         0         0         0         0  
      54  hru054                  54       0.76091      -3.36443      36.82638    1278.00000        54      sta338s3687e         0         0         0         0  
      55  hru055                  55       0.09511      -3.37349      36.82543    1197.00000        55      sta338s3687e         0         0         0         0  
      56  hru056                  56     720.86612      -3.29554      36.78317    2384.82742        56      sta338s3687e         0         0         0         0  
      57  hru057                  57      90.54817      -3.28802      36.78071    2870.34034        57      sta338s3687e         0         0         0         0  
      58  hru058                  58    2079.75441      -3.33726      36.79542    1557.71463        58      sta338s3687e         0         0         0         0  
      59  hru059                  59      70.66942      -3.36153      36.81155    1345.93809        59      sta338s3687e         0         0         0         0  
      60  hru060                  60       4.75568      -3.33390      36.79744    1697.02000        60      sta338s3687e         0         0         0         0  
      61  hru061                  61     153.03781      -3.35216      36.80401    1430.44935        61      sta338s3687e         0         0         0         0  
      62  hru062                  62     132.87373      -3.31288      36.78610    1980.16178        62      sta338s3687e         0         0         0         0  
      63  hru063                  63      96.82566      -3.32807      36.79000    1710.03143        63      sta338s3687e         0         0         0         0  
      64  hru064                  64     103.76896      -3.36441      36.81212    1319.68011        64      sta338s3687e         0         0         0         0  
      65  hru065                  65      22.82727      -3.33729      36.79559    1580.55000        65      sta338s3687e         0         0         0         0  
      66  hru066                  66       1.14136      -3.36049      36.81115    1307.25000        66      sta338s3687e         0         0         0         0  
      67  hru067                  67       0.09511      -3.37236      36.82238    1201.00000        67      sta338s3687e         0         0         0         0  
      68  hru068                  68    1138.03446      -3.28868      36.81230    2125.50221        68      sta338s3687e         0         0         0         0  
      69  hru069                  69     980.81165      -3.32592      36.83216    1504.97236        69      sta338s3687e         0         0         0         0  
      70  hru070                  70     165.30747      -3.34939      36.84524    1290.15938        70      sta338s3687e         0         0         0         0  
      71  hru071                  71     131.73236      -3.34881      36.84489    1291.01227        71      sta338s3687e         0         0         0         0  
      72  hru072                  72      51.55158      -3.35951      36.85201    1218.08303        72      sta338s3687e         0         0         0         0  
      73  hru073                  73      19.30806      -3.35541      36.84906    1260.10837        73      sta338s3687e         0         0         0         0  
      74  hru074                  74      14.55238      -3.35256      36.84833    1269.10458        74      sta338s3687e         0         0         0         0  
      75  hru075                  75       6.18239      -3.36167      36.85529    1196.72308        75      sta338s3687e         0         0         0         0  
      76  hru076                  76      80.37101      -3.36152      36.85144    1215.17041        76      sta338s3687e         0         0         0         0  
      77  hru077                  77      53.64408      -3.36260      36.85585    1193.98759        77      sta338s3687e         0         0         0         0  
      78  hru078                  78       1.80716      -3.36618      36.85320    1190.15789        78      sta338s3687e         0         0         0         0  
      79  hru079                  79       0.95114      -3.36990      36.85706    1165.60000        79      sta338s3687e         0         0         0         0  
      80  hru080                  80     336.51199      -3.38777      36.84466    1157.16252        80      sta338s3687e         0         0         0         0  
      81  hru081                  81     541.48184      -3.39248      36.84730    1137.76023        81      sta338s3687e         0         0         0         0  
      82  hru082                  82     153.51338      -3.38499      36.85157    1142.82280        82      sta338s3687e         0         0         0         0  
      83  hru083                  83     524.64673      -3.39997      36.84729    1118.75163        83      sta338s3687e         0         0         0         0  
      84  hru084                  84      23.58818      -3.38315      36.84853    1152.64919        84      sta338s3687e         0         0         0         0  
      85  hru085                  85     219.90269      -3.38492      36.84269    1169.06747        85      sta338s3687e         0         0         0         0  
      86  hru086                  86     175.19929      -3.39582      36.84947    1123.63735        86      sta338s3687e         0         0         0         0  
      87  hru087                  87     182.42792      -3.40004      36.85265    1110.14494        87      sta338s3687e         0         0         0         0  
      88  hru088                  88      92.54555      -3.39501      36.85002    1124.76362        88      sta338s3687e         0         0         0         0  
      89  hru089                  89      13.69636      -3.38755      36.85144    1137.63194        89      sta338s3687e         0         0         0         0  
      90  hru090                  90      22.92238      -3.38180      36.84323    1172.94191        90      sta338s3687e         0         0         0         0  
      91  hru091                  91       4.56545      -3.37705      36.85182    1155.79167        91      sta338s3687e         0         0         0         0  
      92  hru092                  92       2.28273      -3.36803      36.86865    1170.58333        92      sta338s3687e         0         0         0         0  
      93  hru093                  93      38.71124      -3.36869      36.86942    1170.69779        93      sta338s3687e         0         0         0         0  
      94  hru094                  94      82.55862      -3.37350      36.86934    1154.15668        94      sta338s3687e         0         0         0         0  
      95  hru095                  95      59.06556      -3.37545      36.86934    1146.16747        95      sta338s3687e         0         0         0         0  
      96  hru096                  96      28.72431      -3.38176      36.86886    1135.73179        96      sta338s3687e         0         0         0         0  
      97  hru097                  97      89.40680      -3.37625      36.87006    1146.78298        97      sta338s3687e         0         0         0         0  
      98  hru098                  98      28.43897      -3.37623      36.86885    1145.76254        98      sta338s3687e         0         0         0         0  
      99  hru099                  99       3.89966      -3.37170      36.86883    1156.70732        99      sta338s3687e         0         0         0         0  
     100  hru100                 100      19.59341      -3.37274      36.87156    1154.40291       100      sta338s3687e         0         0         0         0  
     101  hru101                 101       1.33159      -3.37018      36.86931    1164.14286       101      sta338s3687e         0         0         0         0  
     102  hru102                 102       3.99477      -3.37559      36.87005    1144.90476       102      sta338s3687e         0         0         0         0  
     103  hru103                 103       0.09511      -3.36774      36.87261    1174.00000       103      sta338s3687e         0         0         0         0  
     104  hru104                 104       0.19023      -3.37443      36.87412    1146.00000       104      sta338s3687e         0         0         0         0  
     105  hru105                 105     364.76073      -3.39979      36.87457    1106.19061       105      sta338s3687e         0         0         0         0  
     106  hru106                 106      48.03238      -3.41084      36.87013    1084.15050       106      sta338s3687e         0         0         0         0  
     107  hru107                 107      66.48442      -3.41818      36.86410    1064.79828       107      sta338s3687e         0         0         0         0  
     108  hru108                 108       4.08989      -3.40863      36.87012    1087.95349       108      sta338s3687e         0         0         0         0  
     109  hru109                 109       7.41886      -3.42708      36.86105    1048.10256       109      sta338s3687e         0         0         0         0  
     110  hru110                 110      10.74784      -3.39712      36.87484    1110.53982       110      sta338s3687e         0         0         0         0  
     111  hru111                 111      64.10658      -3.40266      36.87085    1097.98516       111      sta338s3687e         0         0         0         0  
     112  hru112                 112      40.42329      -3.40423      36.87199    1095.74118       112      sta338s3687e         0         0         0         0  
     113  hru113                 113      23.68329      -3.41536      36.86370    1070.79920       113      sta338s3687e         0         0         0         0  
     114  hru114                 114       0.19023      -3.41999      36.86223    1061.50000       114      sta338s3687e         0         0         0         0  
     115  hru115                 115       0.57068      -3.43239      36.85896    1038.83333       115      sta338s3687e         0         0         0         0  
     116  hru116                 116     137.62941      -3.41953      36.83217    1102.92813       116      sta338s3687e         0         0         0         0  
     117  hru117                 117       7.70420      -3.42288      36.83547    1092.28395       117      sta338s3687e         0         0         0         0  
     118  hru118                 118      44.41806      -3.42136      36.83395    1094.21413       118      sta338s3687e         0         0         0         0  
     119  hru119                 119      20.92500      -3.41842      36.83293    1103.07273       119      sta338s3687e         0         0         0         0  
     120  hru120                 120      12.84034      -3.41862      36.83435    1098.35556       120      sta338s3687e         0         0         0         0  
     121  hru121                 121     172.82145      -3.42335      36.83583    1087.54761       121      sta338s3687e         0         0         0         0  
     122  hru122                 122       3.32898      -3.42404      36.83862    1084.02857       122      sta338s3687e         0         0         0         0  
     123  hru123                 123      28.72431      -3.42235      36.83531    1090.11258       123      sta338s3687e         0         0         0         0  
     124  hru124                 124      11.98432      -3.42474      36.83936    1076.49206       124      sta338s3687e         0         0         0         0  
     125  hru125                 125      18.73738      -3.42485      36.83708    1084.66497       125      sta338s3687e         0         0         0         0  
     126  hru126                 126       0.09511      -3.41810      36.82644    1119.00000       126      sta338s3687e         0         0         0         0  
     127  hru127                 127      71.24010      -3.44007      36.84673    1042.89720       127      sta338s3687e         0         0         0         0  
     128  hru128                 128      15.69375      -3.44001      36.85383    1032.07879       128      sta338s3687e         0         0         0         0  
     129  hru129                 129      19.97386      -3.44115      36.85009    1036.16667       129      sta338s3687e         0         0         0         0  
     130  hru130                 130      13.50613      -3.44082      36.84984    1037.05634       130      sta338s3687e         0         0         0         0  
     131  hru131                 131     103.76896      -3.44052      36.84684    1043.53071       131      sta338s3687e         0         0         0         0  
     132  hru132                 132       3.04364      -3.44053      36.85159    1034.65625       132      sta338s3687e         0         0         0         0  
     133  hru133                 133      11.98432      -3.43953      36.84688    1043.62698       133      sta338s3687e         0         0         0         0  
     134  hru134                 134      10.08204      -3.44017      36.85120    1032.74528       134      sta338s3687e         0         0         0         0  
     135  hru135                 135       5.70682      -3.44102      36.84975    1037.45000       135      sta338s3687e         0         0         0         0  
     136  hru136                 136       0.38045      -3.44255      36.85031    1036.50000       136      sta338s3687e         0         0         0         0  
