hyd-sed-lte.cha: written by SWAT+ editor v1.3.0 on 2021-02-03 12:56
name                         order            wd            dp           slp           len          mann             k     erod_fact      cov_fact        hc_cov        eq_slp           d50          clay        carbon        dry_bd      side_slp      bed_load        t_conc     shear_bnk       hc_erod         hc_ht        hc_len  description
hydcha01                         2      17.89411       0.75051       0.01525       1.24550       0.05000       1.00000       0.01000       0.00500       0.00000       0.00100      12.00000      50.00000       0.04000       1.00000       0.50000       0.50000      10.00000       0.75000       0.10000       0.30000       0.30000  
hydcha02                         1      13.49788       0.62191       0.02704      13.97920       0.05000       1.00000       0.01000       0.00500       0.00000       0.00100      12.00000      50.00000       0.04000       1.00000       0.50000       0.50000      10.00000       0.75000       0.10000       0.30000       0.30000  
hydcha03                         1      11.25827       0.55106       0.01885      10.77140       0.05000       1.00000       0.01000       0.00500       0.00000       0.00100      12.00000      50.00000       0.04000       1.00000       0.50000       0.50000      10.00000       0.75000       0.10000       0.30000       0.30000  
hydcha04                         1       9.20389       0.48180       0.03607       7.26360       0.05000       1.00000       0.01000       0.00500       0.00000       0.00100      12.00000      50.00000       0.04000       1.00000       0.50000       0.50000      10.00000       0.75000       0.10000       0.30000       0.30000  
hydcha05                         1       7.34176       0.41440       0.02579       0.42650       0.05000       1.00000       0.01000       0.00500       0.00000       0.00100      12.00000      50.00000       0.04000       1.00000       0.50000       0.50000      10.00000       0.75000       0.10000       0.30000       0.30000  
hydcha06                         1      10.84738       0.53757       0.02540       6.33930       0.05000       1.00000       0.01000       0.00500       0.00000       0.00100      12.00000      50.00000       0.04000       1.00000       0.50000       0.50000      10.00000       0.75000       0.10000       0.30000       0.30000  
hydcha07                         2      17.31699       0.73429       0.01646       6.74330       0.05000       1.00000       0.01000       0.00500       0.00000       0.00100      12.00000      50.00000       0.04000       1.00000       0.50000       0.50000      10.00000       0.75000       0.10000       0.30000       0.30000  
hydcha08                         1       9.07698       0.47736       0.02123       9.98450       0.05000       1.00000       0.01000       0.00500       0.00000       0.00100      12.00000      50.00000       0.04000       1.00000       0.50000       0.50000      10.00000       0.75000       0.10000       0.30000       0.30000  
hydcha09                         3      33.87193       1.14844       0.00777       1.15830       0.05000       1.00000       0.01000       0.00500       0.00000       0.00100      12.00000      50.00000       0.04000       1.00000       0.50000       0.50000      10.00000       0.75000       0.10000       0.30000       0.30000  
hydcha10                         2      23.19207       0.89216       0.01283       6.46890       0.05000       1.00000       0.01000       0.00500       0.00000       0.00100      12.00000      50.00000       0.04000       1.00000       0.50000       0.50000      10.00000       0.75000       0.10000       0.30000       0.30000  
hydcha11                         2      21.20290       0.84039       0.00784       1.14770       0.05000       1.00000       0.01000       0.00500       0.00000       0.00100      12.00000      50.00000       0.04000       1.00000       0.50000       0.50000      10.00000       0.75000       0.10000       0.30000       0.30000  
