initial.aqu: written by SWAT+ editor v1.3.0 on 2021-02-03 12:56
name                       org_min              pest              path              hmet              salt  description       
initaqu1                   no_init              null              null              null              null  null              
