landuse.lum: written by SWAT+ editor v1.3.0 on 2021-02-02 09:16
name                         cal_group          plnt_com               mgt               cn2         cons_prac             urban            urb_ro           ov_mann              tile               sep               vfs              grww               bmp  
frsd_lum                          null         frsd_comm              null            wood_f     up_down_slope              null              null        forest_med              null              null              null              null              null  
agrl_lum                          null         baco_comm          agrl_rot        rc_strow_g       cross_slope              null              null      convtill_res              null              null              null              null              null  
bana_lum                          null         bana_comm          bana_rot        rc_strow_g       cross_slope              null              null      convtill_res              null              null              null              null              null  
frse_lum                          null         frse_comm              null            wood_f     up_down_slope              null              null      forest_heavy              null              null              null              null              null  
migs_lum                          null         migs_comm              null        rc_strow_g     up_down_slope              null              null    convtill_nores              null              null              null              null              null  
bsvg_lum                          null         bsvg_comm              null        rc_strow_g     up_down_slope              null              null    convtill_nores              null              null              null              null              null  
agrr_lum                          null         agrr_comm          agrr_rot        rc_strow_g       cross_slope              null              null      convtill_res              null              null              null              null              null  
corn_lum                          null         corn_comm          corn_rot        rc_strow_g       cross_slope              null              null      convtill_res              null              null              null              null              null  
sugc_lum                          null         sugc_comm          sugc_rot        rc_strow_g       cross_slope              null              null      convtill_res              null              null              null              null              null  
shrb_lum                          null         shrb_comm              null        rc_strow_g     up_down_slope              null              null    convtill_nores              null              null              null              null              null  
gras_lum                          null         gras_comm              null        rc_strow_g     up_down_slope              null              null    convtill_nores              null              null              null              null              null  
frst_lum                          null         frst_comm              null            wood_f     up_down_slope              null              null        forest_med              null              null              null              null              null  
urml_lum                          null              null              null             urban     up_down_slope              urml   buildup_washoff     urban_asphalt              null              null              null              null              null  
wetn_lum                          null         wetn_comm              null            wood_p     up_down_slope              null              null        forest_med              null              null              null              null              null  
wetl_lum                          null         wetl_comm              null            wood_p     up_down_slope              null              null        forest_med              null              null              null              null              null  
