ls_unit.ele: written by SWAT+ editor v1.3.0 on 2021-02-03 12:56
      id  name                   obj_typ  obj_typ_no      bsn_frac      sub_frac      reg_frac  
       1  hru001                     hru           1     3.4725E-2       0.21795       0.00000  
       2  hru002                     hru           2     2.1793E-3       0.01368       0.00000  
       3  hru003                     hru           3     1.1851E-2       0.07438       0.00000  
       4  hru004                     hru           4     9.0121E-5       0.00057       0.00000  
       5  hru005                     hru           5     4.8612E-2       0.30510       0.00000  
       6  hru006                     hru           6     6.9639E-5       0.00044       0.00000  
       7  hru007                     hru           7     1.6386E-5       0.00010       0.00000  
       8  hru008                     hru           8     1.5689E-2       0.09847       0.00000  
       9  hru009                     hru           9     1.6263E-2       0.10207       0.00000  
      10  hru010                     hru          10     4.0964E-6       0.00003       0.00000  
      11  hru011                     hru          11     6.0709E-3       0.03810       0.00000  
      12  hru012                     hru          12     3.0764E-3       0.01931       0.00000  
      13  hru013                     hru          13     1.8368E-2       0.11528       0.00000  
      14  hru014                     hru          14     1.2617E-3       0.00792       0.00000  
      15  hru015                     hru          15     7.4145E-4       0.00465       0.00000  
      16  hru016                     hru          16     2.2530E-4       0.00141       0.00000  
      17  hru017                     hru          17     4.0964E-6       0.00003       0.00000  
      18  hru018                     hru          18     8.1928E-5       0.00051       0.00000  
      19  hru019                     hru          19     1.2773E-1       0.59248       0.00000  
      20  hru020                     hru          20     3.4520E-2       0.16012       0.00000  
      21  hru021                     hru          21     2.6303E-2       0.12201       0.00000  
      22  hru022                     hru          22     1.2355E-2       0.05731       0.00000  
      23  hru023                     hru          23     4.9157E-4       0.00228       0.00000  
      24  hru024                     hru          24     1.7000E-3       0.00789       0.00000  
      25  hru025                     hru          25     5.3786E-3       0.02495       0.00000  
      26  hru026                     hru          26     4.2643E-3       0.01978       0.00000  
      27  hru027                     hru          27     2.4087E-3       0.01117       0.00000  
      28  hru028                     hru          28     1.7205E-4       0.00080       0.00000  
      29  hru029                     hru          29     2.4578E-4       0.00114       0.00000  
      30  hru030                     hru          30     1.6386E-5       0.00008       0.00000  
      31  hru031                     hru          31     2.4591E-2       0.22098       0.00000  
      32  hru032                     hru          32     8.5779E-3       0.07708       0.00000  
      33  hru033                     hru          33     5.1901E-3       0.04664       0.00000  
      34  hru034                     hru          34     1.2900E-2       0.11592       0.00000  
      35  hru035                     hru          35     7.5251E-3       0.06762       0.00000  
      36  hru036                     hru          36     5.6121E-4       0.00504       0.00000  
      37  hru037                     hru          37     2.5439E-3       0.02286       0.00000  
      38  hru038                     hru          38     4.0374E-2       0.36282       0.00000  
      39  hru039                     hru          39     6.1815E-3       0.05555       0.00000  
      40  hru040                     hru          40     2.7036E-3       0.02430       0.00000  
      41  hru041                     hru          41     4.0964E-5       0.00037       0.00000  
      42  hru042                     hru          42     7.7832E-5       0.00070       0.00000  
      43  hru043                     hru          43     1.2289E-5       0.00011       0.00000  
      44  hru044                     hru          44     2.2510E-2       0.28809       0.00000  
      45  hru045                     hru          45     7.7422E-4       0.00991       0.00000  
      46  hru046                     hru          46     3.3787E-2       0.43242       0.00000  
      47  hru047                     hru          47     7.5374E-4       0.00965       0.00000  
      48  hru048                     hru          48     2.0892E-3       0.02674       0.00000  
      49  hru049                     hru          49     3.1133E-3       0.03984       0.00000  
      50  hru050                     hru          50     1.5034E-3       0.01924       0.00000  
      51  hru051                     hru          51     6.0750E-3       0.07775       0.00000  
      52  hru052                     hru          52     7.0212E-3       0.08986       0.00000  
      53  hru053                     hru          53     4.7109E-4       0.00603       0.00000  
      54  hru054                     hru          54     3.2771E-5       0.00042       0.00000  
      55  hru055                     hru          55     4.0964E-6       0.00005       0.00000  
      56  hru056                     hru          56     3.1047E-2       0.20731       0.00000  
      57  hru057                     hru          57     3.8998E-3       0.02604       0.00000  
      58  hru058                     hru          58     8.9572E-2       0.59812       0.00000  
      59  hru059                     hru          59     3.0436E-3       0.02032       0.00000  
      60  hru060                     hru          60     2.0482E-4       0.00137       0.00000  
      61  hru061                     hru          61     6.5911E-3       0.04401       0.00000  
      62  hru062                     hru          62     5.7227E-3       0.03821       0.00000  
      63  hru063                     hru          63     4.1701E-3       0.02785       0.00000  
      64  hru064                     hru          64     4.4692E-3       0.02984       0.00000  
      65  hru065                     hru          65     9.8314E-4       0.00656       0.00000  
      66  hru066                     hru          66     4.9157E-5       0.00033       0.00000  
      67  hru067                     hru          67     4.0964E-6       0.00003       0.00000  
      68  hru068                     hru          68     4.9013E-2       0.43038       0.00000  
      69  hru069                     hru          69     4.2242E-2       0.37092       0.00000  
      70  hru070                     hru          70     7.1195E-3       0.06252       0.00000  
      71  hru071                     hru          71     5.6735E-3       0.04982       0.00000  
      72  hru072                     hru          72     2.2202E-3       0.01950       0.00000  
      73  hru073                     hru          73     8.3157E-4       0.00730       0.00000  
      74  hru074                     hru          74     6.2675E-4       0.00550       0.00000  
      75  hru075                     hru          75     2.6627E-4       0.00234       0.00000  
      76  hru076                     hru          76     3.4615E-3       0.03039       0.00000  
      77  hru077                     hru          77     2.3104E-3       0.02029       0.00000  
      78  hru078                     hru          78     7.7832E-5       0.00068       0.00000  
      79  hru079                     hru          79     4.0964E-5       0.00036       0.00000  
      80  hru080                     hru          80     1.4493E-2       0.14688       0.00000  
      81  hru081                     hru          81     2.3321E-2       0.23635       0.00000  
      82  hru082                     hru          82     6.6116E-3       0.06701       0.00000  
      83  hru083                     hru          83     2.2596E-2       0.22900       0.00000  
      84  hru084                     hru          84     1.0159E-3       0.01030       0.00000  
      85  hru085                     hru          85     9.4709E-3       0.09599       0.00000  
      86  hru086                     hru          86     7.5456E-3       0.07647       0.00000  
      87  hru087                     hru          87     7.8569E-3       0.07963       0.00000  
      88  hru088                     hru          88     3.9858E-3       0.04040       0.00000  
      89  hru089                     hru          89     5.8988E-4       0.00598       0.00000  
      90  hru090                     hru          90     9.8723E-4       0.01001       0.00000  
      91  hru091                     hru          91     1.9663E-4       0.00199       0.00000  
      92  hru092                     hru          92     9.8314E-5       0.00637       0.00000  
      93  hru093                     hru          93     1.6672E-3       0.10804       0.00000  
      94  hru094                     hru          94     3.5557E-3       0.23042       0.00000  
      95  hru095                     hru          95     2.5439E-3       0.16485       0.00000  
      96  hru096                     hru          96     1.2371E-3       0.08017       0.00000  
      97  hru097                     hru          97     3.8506E-3       0.24954       0.00000  
      98  hru098                     hru          98     1.2248E-3       0.07937       0.00000  
      99  hru099                     hru          99     1.6795E-4       0.01088       0.00000  
     100  hru100                     hru         100     8.4386E-4       0.05469       0.00000  
     101  hru101                     hru         101     5.7350E-5       0.00372       0.00000  
     102  hru102                     hru         102     1.7205E-4       0.01115       0.00000  
     103  hru103                     hru         103     4.0964E-6       0.00027       0.00000  
     104  hru104                     hru         104     8.1928E-6       0.00053       0.00000  
     105  hru105                     hru         105     1.5710E-2       0.57852       0.00000  
     106  hru106                     hru         106     2.0687E-3       0.07618       0.00000  
     107  hru107                     hru         107     2.8634E-3       0.10545       0.00000  
     108  hru108                     hru         108     1.7615E-4       0.00649       0.00000  
     109  hru109                     hru         109     3.1952E-4       0.01177       0.00000  
     110  hru110                     hru         110     4.6289E-4       0.01705       0.00000  
     111  hru111                     hru         111     2.7610E-3       0.10167       0.00000  
     112  hru112                     hru         112     1.7410E-3       0.06411       0.00000  
     113  hru113                     hru         113     1.0200E-3       0.03756       0.00000  
     114  hru114                     hru         114     8.1928E-6       0.00030       0.00000  
     115  hru115                     hru         115     2.4578E-5       0.00091       0.00000  
     116  hru116                     hru         116     5.9275E-3       0.29971       0.00000  
     117  hru117                     hru         117     3.3181E-4       0.01678       0.00000  
     118  hru118                     hru         118     1.9130E-3       0.09673       0.00000  
     119  hru119                     hru         119     9.0121E-4       0.04557       0.00000  
     120  hru120                     hru         120     5.5301E-4       0.02796       0.00000  
     121  hru121                     hru         121     7.4432E-3       0.37635       0.00000  
     122  hru122                     hru         122     1.4337E-4       0.00725       0.00000  
     123  hru123                     hru         123     1.2371E-3       0.06255       0.00000  
     124  hru124                     hru         124     5.1615E-4       0.02610       0.00000  
     125  hru125                     hru         125     8.0699E-4       0.04080       0.00000  
     126  hru126                     hru         126     4.0964E-6       0.00021       0.00000  
     127  hru127                     hru         127     3.0682E-3       0.27896       0.00000  
     128  hru128                     hru         128     6.7591E-4       0.06145       0.00000  
     129  hru129                     hru         129     8.6024E-4       0.07821       0.00000  
     130  hru130                     hru         130     5.8169E-4       0.05289       0.00000  
     131  hru131                     hru         131     4.4692E-3       0.40633       0.00000  
     132  hru132                     hru         132     1.3108E-4       0.01192       0.00000  
     133  hru133                     hru         133     5.1615E-4       0.04693       0.00000  
     134  hru134                     hru         134     4.3422E-4       0.03948       0.00000  
     135  hru135                     hru         135     2.4578E-4       0.02235       0.00000  
     136  hru136                     hru         136     1.6386E-5       0.00149       0.00000  
