ls_unit.def: written by SWAT+ editor v1.3.0 on 2021-02-03 12:56
11
      id              name          area  elem_tot  elements  
       1            rtu010     358.29301         2        92      -104  
       2            rtu020    5005.63958         2        19       -30  
       3            rtu030    3699.44424         2         1       -18  
       4            rtu040    2644.25374         2        68       -79  
       5            rtu050    1814.19718         2        44       -55  
       6            rtu060    3477.16371         2        56       -67  
       7            rtu070    2291.00176         2        80       -91  
       8            rtu080    2583.76148         2        31       -43  
       9            rtu090     255.38007         2       127      -136  
      10            rtu100     630.50819         2       105      -115  
      11            rtu110     459.20856         2       116      -126  
