management.sch: written by SWAT+ editor v1.3.0 on 2021-02-02 09:16
name                       numb_ops  numb_auto            op_typ       mon       day        hu_sch          op_data1          op_data2      op_data3  
agrl_rot                          0          2  
                                                      agrl_usa
                                                      irr_agrl													  
agrr_rot                          0          2  
                                                      agrr_usa
													  irr_agrr
corn_rot                          0          3  
                                                      corn_usa
													  irr_corn
													  fert_mixed
bana_rot                          0          3  
                                                      bana_usa
													  irr_bana
													  fert_mixed
sugc_rot                          0          2  
                                                      sugc_usa
                                                      irr_agrl													  