object.cnt: written by SWAT+ editor v1.3.0 on 2021-02-03 12:56
name                   ls_area      tot_area       obj       hru      lhru       rtu       mfl       aqu       cha       res       rec      exco       dlr       can       pmp       out      lcha     aqu2d       hrd       wro  
usa_model_update   23218.85152   23218.85152       181       136         0        11         0        12         0         0        11         0         0         0         0         0        11         0         0         0  
