pcp.cli: Precipitation file names - file written by SWAT+ editor 2021-02-03 11:29:17.248308
filename
stpcp10001.pcp
stpcp10002.pcp
stpcp10003.pcp
