plant.ini: written by SWAT+ editor v1.3.0 on 2021-02-02 09:16
pcom_name          plt_cnt  rot_yr_ini          plt_name     lc_status      lai_init       bm_init      phu_init      plnt_pop      yrs_init      rsd_init  
frsd_comm                1         1  
                                        frsd             y       2.00000   50000.00000       0.00000       0.00000       1.00000   10000.00000  
baco_comm                2         1  
                                        bana             n       0.00000       0.00000       0.00000       0.00000       0.00000   10000.00000
										coff             n       0.00000       0.00000       0.00000       0.00000       0.00000   10000.00000
bana_comm                3         1  
                                        bana             n       0.00000       0.00000       0.00000       0.00000       0.00000   10000.00000 
                                        coff             n       0.00000       0.00000       0.00000       0.00000       0.00000   10000.00000 
                                        corn             n       0.00000       0.00000       0.00000       0.00000       0.00000   10000.00000  
frse_comm                1         1  
                                        frse             y       2.00000   50000.00000       0.00000       0.00000       1.00000   10000.00000  
migs_comm                1         1  
                                        migs             n       0.00000       0.00000       0.00000       0.00000       0.00000   10000.00000  
bsvg_comm                1         1  
                                        bsvg             n       0.00000       0.00000       0.00000       0.00000       0.00000   10000.00000  
agrr_comm                3         1  
                                        corn             n       0.00000       0.00000       0.00000       0.00000       0.00000   10000.00000  
                                        toma             n       0.00000       0.00000       0.00000       0.00000       0.00000   10000.00000  
                                        eggp             n       0.00000       0.00000       0.00000       0.00000       0.00000   10000.00000  
corn_comm                3         1  
                                        corn             n       0.00000       0.00000       0.00000       0.00000       0.00000   10000.00000  
                                        toma             n       0.00000       0.00000       0.00000       0.00000       0.00000   10000.00000  
                                        eggp             n       0.00000       0.00000       0.00000       0.00000       0.00000   10000.00000  
sugc_comm                1         1  
                                        sugc             n       0.00000       0.00000       0.00000       0.00000       0.00000   10000.00000  
shrb_comm                1         1  
                                        shrb             n       0.00000       0.00000       0.00000       0.00000       0.00000   10000.00000  
gras_comm                1         1  
                                        gras             n       0.00000       0.00000       0.00000       0.00000       0.00000   10000.00000  
frst_comm                1         1  
                                        frst             y       2.00000   50000.00000       0.00000       0.00000       1.00000   10000.00000  
wetn_comm                1         1  
                                        wetn             y       2.00000   50000.00000       0.00000       0.00000       1.00000   10000.00000  
wetl_comm                1         1  
                                        wetl             y       2.00000   50000.00000       0.00000       0.00000       1.00000   10000.00000  
