recall.con: written by SWAT+ editor v1.3.0 on 2021-02-03 12:56
      id  name                gis_id          area           lat           lon          elev       rec               wst       cst      ovfl      rule   out_tot       obj_typ    obj_id       hyd_typ          frac  
       1  pt03                     3       0.00001      -3.38250      36.86758    1126.00000         1      sta338s3687e         0         0         0         1           sdc         1           tot       1.00000  
       2  pt05                     5       0.00001      -3.29467      36.86721    1458.00000         2      sta338s3687e         0         0         0         1           sdc         2           tot       1.00000  
       3  pt07                     7       0.00001      -3.32988      36.90182    1313.00000         3      sta338s3687e         0         0         0         1           sdc         3           tot       1.00000  
       4  pt09                     9       0.00001      -3.33809      36.83300    1342.00000         4      sta338s3687e         0         0         0         1           sdc         4           tot       1.00000  
       5  pt11                    11       0.00001      -3.38717      36.83622    1159.00000         5      sta338s3687e         0         0         0         1           sdc         5           tot       1.00000  
       6  pt13                    13       0.00001      -3.36004      36.79938    1309.00000         6      sta338s3687e         0         0         0         1           sdc         6           tot       1.00000  
       7  pt15                    15       0.00001      -3.39079      36.83566    1148.00000         7      sta338s3687e         0         0         0         1           sdc         7           tot       1.00000  
       8  pt17                    17       0.00001      -3.37483      36.80379    1246.00000         8      sta338s3687e         0         0         0         1           sdc         8           tot       1.00000  
       9  pt18                    18       0.00001      -3.44075      36.85524    1027.00000         9      sta338s3687e         0         0         0         1           sdc         9           tot       1.00000  
      10  pt20                    20       0.00001      -3.39226      36.86895    1111.00000        10      sta338s3687e         0         0         0         1           sdc        10           tot       1.00000  
      11  pt22                    22       0.00001      -3.43405      36.85304    1033.00000        11      sta338s3687e         0         0         0         1           sdc        11           tot       1.00000  
