rout_unit.con: written by SWAT+ editor v1.3.0 on 2021-02-03 12:56
      id  name                gis_id          area           lat           lon          elev       rtu               wst       cst      ovfl      rule   out_tot       obj_typ    obj_id       hyd_typ          frac  
       1  rtu010                  10     358.29301      -3.37478      36.86957    1150.72418         1      sta338s3687e         0         0         0         2           sdc         1           tot       1.00000           aqu         8           rhg       1.00000  
       2  rtu020                  20    5005.63958      -3.30431      36.85034    1600.00789         2      sta338s3687e         0         0         0         2           sdc         2           tot       1.00000           aqu         2           rhg       1.00000  
       3  rtu030                  30    3699.44424      -3.32094      36.88326    1369.75521         3      sta338s3687e         0         0         0         2           sdc         3           tot       1.00000           aqu         1           rhg       1.00000  
       4  rtu040                  40    2644.25374      -3.31547      36.82681    1723.09334         4      sta338s3687e         0         0         0         2           sdc         4           tot       1.00000           aqu         6           rhg       1.00000  
       5  rtu050                  50    1814.19718      -3.33117      36.81399    1656.98181         5      sta338s3687e         0         0         0         2           sdc         5           tot       1.00000           aqu         4           rhg       1.00000  
       6  rtu060                  60    3477.16371      -3.32810      36.79320    1766.99283         6      sta338s3687e         0         0         0         2           sdc         6           tot       1.00000           aqu         5           rhg       1.00000  
       7  rtu070                  70    2291.00176      -3.39297      36.84746    1136.33786         7      sta338s3687e         0         0         0         2           sdc         7           tot       1.00000           aqu         7           rhg       1.00000  
       8  rtu080                  80    2583.76148      -3.34297      36.78556    1744.02522         8      sta338s3687e         0         0         0         2           sdc         8           tot       1.00000           aqu         3           rhg       1.00000  
       9  rtu090                  90     255.38007      -3.44038      36.84795    1041.05847         9      sta338s3687e         0         0         0         2           sdc         9           tot       1.00000           aqu        11           rhg       1.00000  
      10  rtu100                 100     630.50819      -3.40410      36.87198    1096.51124        10      sta338s3687e         0         0         0         2           sdc        10           tot       1.00000           aqu         9           rhg       1.00000  
      11  rtu110                 110     459.20856      -3.42168      36.83450    1093.62655        11      sta338s3687e         0         0         0         2           sdc        11           tot       1.00000           aqu        10           rhg       1.00000  
