rout_unit.ele: written by SWAT+ editor v1.3.0 on 2021-02-03 12:56
      id  name                   obj_typ    obj_id          frac               dlr  
       1  hru001                     hru         1     2.1795E-1                 0  
       2  hru002                     hru         2     1.3678E-2                 0  
       3  hru003                     hru         3     7.4380E-2                 0  
       4  hru004                     hru         4     5.6563E-4                 0  
       5  hru005                     hru         5     3.0510E-1                 0  
       6  hru006                     hru         6     4.3707E-4                 0  
       7  hru007                     hru         7     1.0284E-4                 0  
       8  hru008                     hru         8     9.8470E-2                 0  
       9  hru009                     hru         9     1.0207E-1                 0  
      10  hru010                     hru        10     2.5710E-5                 0  
      11  hru011                     hru        11     3.8103E-2                 0  
      12  hru012                     hru        12     1.9308E-2                 0  
      13  hru013                     hru        13     1.1528E-1                 0  
      14  hru014                     hru        14     7.9188E-3                 0  
      15  hru015                     hru        15     4.6536E-3                 0  
      16  hru016                     hru        16     1.4141E-3                 0  
      17  hru017                     hru        17     2.5710E-5                 0  
      18  hru018                     hru        18     5.1420E-4                 0  
      19  hru019                     hru        19     5.9248E-1                 0  
      20  hru020                     hru        20     1.6012E-1                 0  
      21  hru021                     hru        21     1.2201E-1                 0  
      22  hru022                     hru        22     5.7308E-2                 0  
      23  hru023                     hru        23     2.2802E-3                 0  
      24  hru024                     hru        24     7.8855E-3                 0  
      25  hru025                     hru        25     2.4949E-2                 0  
      26  hru026                     hru        26     1.9780E-2                 0  
      27  hru027                     hru        27     1.1173E-2                 0  
      28  hru028                     hru        28     7.9805E-4                 0  
      29  hru029                     hru        29     1.1401E-3                 0  
      30  hru030                     hru        30     7.6005E-5                 0  
      31  hru031                     hru        31     2.2098E-1                 0  
      32  hru032                     hru        32     7.7084E-2                 0  
      33  hru033                     hru        33     4.6641E-2                 0  
      34  hru034                     hru        34     1.1592E-1                 0  
      35  hru035                     hru        35     6.7624E-2                 0  
      36  hru036                     hru        36     5.0433E-3                 0  
      37  hru037                     hru        37     2.2860E-2                 0  
      38  hru038                     hru        38     3.6282E-1                 0  
      39  hru039                     hru        39     5.5549E-2                 0  
      40  hru040                     hru        40     2.4296E-2                 0  
      41  hru041                     hru        41     3.6812E-4                 0  
      42  hru042                     hru        42     6.9943E-4                 0  
      43  hru043                     hru        43     1.1044E-4                 0  
      44  hru044                     hru        44     2.8809E-1                 0  
      45  hru045                     hru        45     9.9088E-3                 0  
      46  hru046                     hru        46     4.3242E-1                 0  
      47  hru047                     hru        47     9.6466E-3                 0  
      48  hru048                     hru        48     2.6738E-2                 0  
      49  hru049                     hru        49     3.9845E-2                 0  
      50  hru050                     hru        50     1.9241E-2                 0  
      51  hru051                     hru        51     7.7750E-2                 0  
      52  hru052                     hru        52     8.9861E-2                 0  
      53  hru053                     hru        53     6.0291E-3                 0  
      54  hru054                     hru        54     4.1942E-4                 0  
      55  hru055                     hru        55     5.2427E-5                 0  
      56  hru056                     hru        56     2.0731E-1                 0  
      57  hru057                     hru        57     2.6041E-2                 0  
      58  hru058                     hru        58     5.9812E-1                 0  
      59  hru059                     hru        59     2.0324E-2                 0  
      60  hru060                     hru        60     1.3677E-3                 0  
      61  hru061                     hru        61     4.4012E-2                 0  
      62  hru062                     hru        62     3.8213E-2                 0  
      63  hru063                     hru        63     2.7846E-2                 0  
      64  hru064                     hru        64     2.9843E-2                 0  
      65  hru065                     hru        65     6.5649E-3                 0  
      66  hru066                     hru        66     3.2825E-4                 0  
      67  hru067                     hru        67     2.7354E-5                 0  
      68  hru068                     hru        68     4.3038E-1                 0  
      69  hru069                     hru        69     3.7092E-1                 0  
      70  hru070                     hru        70     6.2516E-2                 0  
      71  hru071                     hru        71     4.9818E-2                 0  
      72  hru072                     hru        72     1.9496E-2                 0  
      73  hru073                     hru        73     7.3019E-3                 0  
      74  hru074                     hru        74     5.5034E-3                 0  
      75  hru075                     hru        75     2.3380E-3                 0  
      76  hru076                     hru        76     3.0395E-2                 0  
      77  hru077                     hru        77     2.0287E-2                 0  
      78  hru078                     hru        78     6.8343E-4                 0  
      79  hru079                     hru        79     3.5970E-4                 0  
      80  hru080                     hru        80     1.4688E-1                 0  
      81  hru081                     hru        81     2.3635E-1                 0  
      82  hru082                     hru        82     6.7007E-2                 0  
      83  hru083                     hru        83     2.2900E-1                 0  
      84  hru084                     hru        84     1.0296E-2                 0  
      85  hru085                     hru        85     9.5985E-2                 0  
      86  hru086                     hru        86     7.6473E-2                 0  
      87  hru087                     hru        87     7.9628E-2                 0  
      88  hru088                     hru        88     4.0395E-2                 0  
      89  hru089                     hru        89     5.9783E-3                 0  
      90  hru090                     hru        90     1.0005E-2                 0  
      91  hru091                     hru        91     1.9928E-3                 0  
      92  hru092                     hru        92     6.3711E-3                 0  
      93  hru093                     hru        93     1.0804E-1                 0  
      94  hru094                     hru        94     2.3042E-1                 0  
      95  hru095                     hru        95     1.6485E-1                 0  
      96  hru096                     hru        96     8.0170E-2                 0  
      97  hru097                     hru        97     2.4954E-1                 0  
      98  hru098                     hru        98     7.9374E-2                 0  
      99  hru099                     hru        99     1.0884E-2                 0  
     100  hru100                     hru       100     5.4685E-2                 0  
     101  hru101                     hru       101     3.7165E-3                 0  
     102  hru102                     hru       102     1.1149E-2                 0  
     103  hru103                     hru       103     2.6546E-4                 0  
     104  hru104                     hru       104     5.3093E-4                 0  
     105  hru105                     hru       105     5.7852E-1                 0  
     106  hru106                     hru       106     7.6180E-2                 0  
     107  hru107                     hru       107     1.0545E-1                 0  
     108  hru108                     hru       108     6.4866E-3                 0  
     109  hru109                     hru       109     1.1766E-2                 0  
     110  hru110                     hru       110     1.7046E-2                 0  
     111  hru111                     hru       111     1.0167E-1                 0  
     112  hru112                     hru       112     6.4112E-2                 0  
     113  hru113                     hru       113     3.7562E-2                 0  
     114  hru114                     hru       114     3.0170E-4                 0  
     115  hru115                     hru       115     9.0511E-4                 0  
     116  hru116                     hru       116     2.9971E-1                 0  
     117  hru117                     hru       117     1.6777E-2                 0  
     118  hru118                     hru       118     9.6727E-2                 0  
     119  hru119                     hru       119     4.5568E-2                 0  
     120  hru120                     hru       120     2.7962E-2                 0  
     121  hru121                     hru       121     3.7635E-1                 0  
     122  hru122                     hru       122     7.2494E-3                 0  
     123  hru123                     hru       123     6.2552E-2                 0  
     124  hru124                     hru       124     2.6098E-2                 0  
     125  hru125                     hru       125     4.0804E-2                 0  
     126  hru126                     hru       126     2.0713E-4                 0  
     127  hru127                     hru       127     2.7896E-1                 0  
     128  hru128                     hru       128     6.1453E-2                 0  
     129  hru129                     hru       129     7.8212E-2                 0  
     130  hru130                     hru       130     5.2886E-2                 0  
     131  hru131                     hru       131     4.0633E-1                 0  
     132  hru132                     hru       132     1.1918E-2                 0  
     133  hru133                     hru       133     4.6927E-2                 0  
     134  hru134                     hru       134     3.9479E-2                 0  
     135  hru135                     hru       135     2.2346E-2                 0  
     136  hru136                     hru       136     1.4898E-3                 0  
