rout_unit.def: written by SWAT+ editor v1.3.0 on 2021-02-03 12:56
      id              name  elem_tot  elements  
       1            rtu010         2        92      -104  
       2            rtu020         2        19       -30  
       3            rtu030         2         1       -18  
       4            rtu040         2        68       -79  
       5            rtu050         2        44       -55  
       6            rtu060         2        56       -67  
       7            rtu070         2        80       -91  
       8            rtu080         2        31       -43  
       9            rtu090         2       127      -136  
      10            rtu100         2       105      -115  
      11            rtu110         2       116      -126  
