rout_unit.rtu: written by SWAT+ editor v1.3.0 on 2021-02-03 12:56
      id              name            define               dlr              topo             field  
       1            rtu010            rtu010              null        toportu010            fld010  
       2            rtu020            rtu020              null        toportu020            fld020  
       3            rtu030            rtu030              null        toportu030            fld030  
       4            rtu040            rtu040              null        toportu040            fld040  
       5            rtu050            rtu050              null        toportu050            fld050  
       6            rtu060            rtu060              null        toportu060            fld060  
       7            rtu070            rtu070              null        toportu070            fld070  
       8            rtu080            rtu080              null        toportu080            fld080  
       9            rtu090            rtu090              null        toportu090            fld090  
      10            rtu100            rtu100              null        toportu100            fld100  
      11            rtu110            rtu110              null        toportu110            fld110  
