scen_lu.dtl: written by SWAT+ editor v1.3.0 on 2021-02-03 12:56
4

name                     conds      alts      acts  
1800's_landuse               8         8         5  
var                        obj   obj_num           lim_var            lim_op     lim_const      alt1      alt2      alt3      alt4      alt5      alt6      alt7      alt8  
year_cal                  null         0              null                 -    1870.00000         >         >         >         >         >         -         -         -  
year_cal                  null         0              null                 -    1900.00000         <         <         <         <         <         =         =         =  
prob                      null         0              null                 -       0.02000         <         <         <         <         <         -         -         -  
prob                      null         0              null                 -       0.50000         >         <         -         <         -         -         -         -  
land_use                   hru         0        landuse001                 -       0.00000         =         =         -         -         -         =         -         -  
land_use                   hru         0        landuse002                 -       0.00000         -         -         =         -         -         -         =         -  
land_use                   hru         0        landuse003                 -       0.00000         -         -         -         =         -         -         -         -  
land_use                   hru         0        landuse006                 -       0.00000         -         -         -         -         =         -         -         =  
act_typ                    obj   obj_num              name            option         const        const2                fp  outcome           
lu_change                  hru         0       corn_noprac              null       0.00000       0.00000       corn_noprac  y   n   n   n   n   y   n   n   
lu_change                  hru         0       oats_noprac              null       0.00000       0.00000       oats_noprac  n   y   n   n   n   n   n   n   
lu_change                  hru         0       past_noprac              null       0.00000       0.00000       past_noprac  n   n   y   n   n   n   y   n   
lu_change                  hru         0      forest_graze              null       0.00000       0.00000      forest_graze  n   n   n   y   n   n   n   n   
lu_change                  hru         0         farmstead              null       0.00000       0.00000         farmstead  n   n   n   n   y   n   n   y   

name                     conds      alts      acts  
1930's_consprac              7         8         4  
var                        obj   obj_num           lim_var            lim_op     lim_const      alt1      alt2      alt3      alt4      alt5      alt6      alt7      alt8  
year_cal                  null         0              null                 -    1935.00000         >         >         >         >         -         -         -         -  
year_cal                  null         0              null                 -    1975.00000         <         <         <         <         =         =         =         =  
prob                      null         0              null                 -       0.02500         <         <         <         <         -         -         -         -  
land_use                   hru         0       corn_noprac                 -       0.00000         =         -         -         -         =         -         -         -  
land_use                   hru         0       oats_noprac                 -       0.00000         -         =         -         -         -         =         -         -  
land_use                   hru         0       past_noprac                 -       0.00000         -         -         =         -         -         -         =         -  
land_use                   hru         0      forest_graze                 -       0.00000         -         -         -         =         -         -         -         =  
act_typ                    obj   obj_num              name            option         const        const2                fp  outcome           
lu_change                  hru         0       corn_noprac              null       0.00000       0.00000     corn_consprac  y   n   n   n   y   n   n   n   
lu_change                  hru         0       oats_noprac              null       0.00000       0.00000     oats_consprac  n   y   n   n   n   y   n   n   
lu_change                  hru         0       past_noprac              null       0.00000       0.00000     past_consprac  n   n   y   n   n   n   y   n   
lu_change                  hru         0      forest_graze              null       0.00000       0.00000  forest_consgraze  n   n   n   y   n   n   n   y   

name                     conds      alts      acts  
1800's_channel               7         8         4  
var                        obj   obj_num           lim_var            lim_op     lim_const      alt1      alt2      alt3      alt4      alt5      alt6      alt7      alt8  
year_cal                  null         0              null                 -    1870.00000         >         >         >         >         -         -         -         -  
year_cal                  null         0              null                 -    1900.00000         <         <         <         <         =         =         =         =  
prob                      null         0              null                 -       0.02000         <         <         <         <         -         -         -         -  
ch_use                     cha         0             gully                 -       0.00000         =         -         -         -         =         -         -         -  
ch_use                     cha         0         tributary                 -       0.00000         -         =         -         -         -         =         -         -  
ch_use                     cha         0        main_upper                 -       0.00000         -         -         =         -         -         -         =         -  
ch_use                     cha         0        main_lower                 -       0.00000         -         -         -         =         -         -         -         =  
act_typ                    obj   obj_num              name            option         const        const2                fp  outcome           
ch_change                  cha         0           gully_c              null       0.20000       0.00000           gully_c  y   n   n   n   n   y   n   n   
ch_change                  cha         0       tributary_c              null       0.40000       0.00000       tributary_c  n   y   n   n   n   n   n   n   
ch_change                  cha         0      main_upper_c              null       0.60000       0.00000      main_upper_c  n   n   y   n   n   n   y   n   
ch_change                  cha         0      main_lower_c              null       0.60000       0.00000      main_lower_c  n   n   n   y   n   n   n   n   

name                     conds      alts      acts  
1930's_channel               7         8         4  
var                        obj   obj_num           lim_var            lim_op     lim_const      alt1      alt2      alt3      alt4      alt5      alt6      alt7      alt8  
year_cal                  null         0              null                 -    1870.00000         >         >         >         >         -         -         -         -  
year_cal                  null         0              null                 -    1900.00000         <         <         <         <         =         =         =         =  
prob                      null         0              null                 -       0.02000         <         <         <         <         -         -         -         -  
ch_use                     cha         0           gully_c                 -       0.00000         =         -         -         -         =         -         -         -  
ch_use                     cha         0       tributary_c                 -       0.00000         -         =         -         -         -         =         -         -  
ch_use                     cha         0      main_upper_c                 -       0.00000         -         -         =         -         -         -         =         -  
ch_use                     cha         0      main_lower_c                 -       0.00000         -         -         -         =         -         -         -         =  
act_typ                    obj   obj_num              name            option         const        const2                fp  outcome           
ch_change                  cha         0             gully              null       0.95000       0.00000             gully  y   n   n   n   n   y   n   n   
ch_change                  cha         0         tributary              null       0.95000       0.00000         tributary  n   y   n   n   n   n   n   n   
ch_change                  cha         0        main_upper              null       0.95000       0.00000        main_upper  n   n   y   n   n   n   y   n   
ch_change                  cha         0        main_lower              null       0.95000       0.00000        main_lower  n   n   n   y   n   n   n   n   

