soils.sol: written by SWAT+ editor v1.3.0 on 2021-02-03 12:56
name                            nly           hyd_grp        dp_tot    anion_excl      perc_crk  texture                              dp            bd           awc        soil_k        carbon          clay          silt          sand          rock           alb        usle_k            ec         caco3            ph  
Bc15-2ab-442                      2                 C     630.00000       0.50000       0.50000  LOAM                       
                                                                                                                               300.00000       1.20000       0.10400      17.22000       1.20000      22.00000      29.00000      49.00000       0.00000       0.04840       0.26870       0.00000       0.00000       0.00000  
                                                                                                                              1000.00000       1.30000       0.10400       8.25000       0.60000      28.00000      28.00000      43.00000       0.00000       0.15400       0.26870       0.00000       0.00000       0.00000  
Tm13-2-3c-945                     2                 C     840.00000       0.50000       0.50000  CLAY_LOAM                  
                                                                                                                               300.00000       1.00000       0.17500      35.59000       2.40000      35.00000      31.00000      34.00000       0.00000       0.00480       0.26950       0.00000       0.00000       0.00000  
                                                                                                                              1000.00000       1.00000       0.17500      38.75000       1.10000      42.00000      31.00000      28.00000       0.00000       0.05870       0.26950       0.00000       0.00000       0.00000  
