soil_plant.ini: written by SWAT+ editor v1.3.0 on 2021-02-03 12:56
name                   sw_frac         nutrients              pest              path              hmet              salt  
soilplant1             0.00000          soilnut1              null              null              null              null  
