sweep.ops: written by SWAT+ editor v1.3.0 on 2021-02-03 12:56
name                   swp_eff     frac_curb  description
high_eff               0.80000       0.90000  
