time.sim: written by SWAT+ editor v1.3.0 on 2021-02-03 12:56
day_start  yrc_start   day_end   yrc_end      step  
       0      2006         0      2016         0  
