tmp.cli: Temperature file names - file written by SWAT+ editor 2021-02-03 11:29:17.402895
filename
sttmp10001.tmp
sttmp10002.tmp
