topography.hyd: written by SWAT+ editor v1.3.0 on 2021-02-03 12:56
name                       slp       slp_len       lat_len      dist_cha         depos  
topohru001             0.16377      10.00000      10.00000     121.00000       0.00000  
topohru002             0.08356      10.00000      10.00000     121.00000       0.00000  
topohru003             0.16131      10.00000      10.00000     121.00000       0.00000  
topohru004             0.03332      60.00000      60.00000     121.00000       0.00000  
topohru005             0.13356      10.00000      10.00000     121.00000       0.00000  
topohru006             0.10985      10.00000      10.00000     121.00000       0.00000  
topohru007             0.00000     121.00000     121.00000     121.00000       0.00000  
topohru008             0.16489      10.00000      10.00000     121.00000       0.00000  
topohru009             0.10949      10.00000      10.00000     121.00000       0.00000  
topohru010             0.00000     121.00000     121.00000     121.00000       0.00000  
topohru011             0.09774      10.00000      10.00000     121.00000       0.00000  
topohru012             0.12890      10.00000      10.00000     121.00000       0.00000  
topohru013             0.07880      30.00000      30.00000     121.00000       0.00000  
topohru014             0.10912      10.00000      10.00000     121.00000       0.00000  
topohru015             0.07619      30.00000      30.00000     121.00000       0.00000  
topohru016             0.17302      10.00000      10.00000     121.00000       0.00000  
topohru017             0.09727      10.00000      10.00000     121.00000       0.00000  
topohru018             0.05357      30.00000      30.00000     121.00000       0.00000  
topohru019             0.19090      10.00000      10.00000     121.00000       0.00000  
topohru020             0.15513      10.00000      10.00000     121.00000       0.00000  
topohru021             0.10249      10.00000      10.00000     121.00000       0.00000  
topohru022             0.10014      10.00000      10.00000     121.00000       0.00000  
topohru023             0.06754      30.00000      30.00000     121.00000       0.00000  
topohru024             0.13178      10.00000      10.00000     121.00000       0.00000  
topohru025             0.06202      30.00000      30.00000     121.00000       0.00000  
topohru026             0.10011      10.00000      10.00000     121.00000       0.00000  
topohru027             0.06310      30.00000      30.00000     121.00000       0.00000  
topohru028             0.04834      60.00000      60.00000     121.00000       0.00000  
topohru029             0.16962      10.00000      10.00000     121.00000       0.00000  
topohru030             0.06248      30.00000      30.00000     121.00000       0.00000  
topohru031             0.37203      10.00000      10.00000     121.00000       0.00000  
topohru032             0.36157      10.00000      10.00000     121.00000       0.00000  
topohru033             0.21277      10.00000      10.00000     121.00000       0.00000  
topohru034             0.16171      10.00000      10.00000     121.00000       0.00000  
topohru035             0.20328      10.00000      10.00000     121.00000       0.00000  
topohru036             0.13666      10.00000      10.00000     121.00000       0.00000  
topohru037             0.16785      10.00000      10.00000     121.00000       0.00000  
topohru038             0.27838      10.00000      10.00000     121.00000       0.00000  
topohru039             0.38887      10.00000      10.00000     121.00000       0.00000  
topohru040             0.18835      10.00000      10.00000     121.00000       0.00000  
topohru041             0.05894      30.00000      30.00000     121.00000       0.00000  
topohru042             0.12067      10.00000      10.00000     121.00000       0.00000  
topohru043             0.05088      30.00000      30.00000     121.00000       0.00000  
topohru044             0.30575      10.00000      10.00000     121.00000       0.00000  
topohru045             0.17851      10.00000      10.00000     121.00000       0.00000  
topohru046             0.17806      10.00000      10.00000     121.00000       0.00000  
topohru047             0.13258      10.00000      10.00000     121.00000       0.00000  
topohru048             0.14028      10.00000      10.00000     121.00000       0.00000  
topohru049             0.10886      10.00000      10.00000     121.00000       0.00000  
topohru050             0.10248      10.00000      10.00000     121.00000       0.00000  
topohru051             0.13070      10.00000      10.00000     121.00000       0.00000  
topohru052             0.15595      10.00000      10.00000     121.00000       0.00000  
topohru053             0.08151      10.00000      10.00000     121.00000       0.00000  
topohru054             0.06471      30.00000      30.00000     121.00000       0.00000  
topohru055             0.04586      60.00000      60.00000     121.00000       0.00000  
topohru056             0.33414      10.00000      10.00000     121.00000       0.00000  
topohru057             0.43561      10.00000      10.00000     121.00000       0.00000  
topohru058             0.20908      10.00000      10.00000     121.00000       0.00000  
topohru059             0.25525      10.00000      10.00000     121.00000       0.00000  
topohru060             0.21919      10.00000      10.00000     121.00000       0.00000  
topohru061             0.24574      10.00000      10.00000     121.00000       0.00000  
topohru062             0.26004      10.00000      10.00000     121.00000       0.00000  
topohru063             0.21464      10.00000      10.00000     121.00000       0.00000  
topohru064             0.26974      10.00000      10.00000     121.00000       0.00000  
topohru065             0.21556      10.00000      10.00000     121.00000       0.00000  
topohru066             0.07808      30.00000      30.00000     121.00000       0.00000  
topohru067             0.00000     121.00000     121.00000     121.00000       0.00000  
topohru068             0.27587      10.00000      10.00000     121.00000       0.00000  
topohru069             0.19643      10.00000      10.00000     121.00000       0.00000  
topohru070             0.18204      10.00000      10.00000     121.00000       0.00000  
topohru071             0.21254      10.00000      10.00000     121.00000       0.00000  
topohru072             0.16201      10.00000      10.00000     121.00000       0.00000  
topohru073             0.25396      10.00000      10.00000     121.00000       0.00000  
topohru074             0.18771      10.00000      10.00000     121.00000       0.00000  
topohru075             0.08550      10.00000      10.00000     121.00000       0.00000  
topohru076             0.22200      10.00000      10.00000     121.00000       0.00000  
topohru077             0.12329      10.00000      10.00000     121.00000       0.00000  
topohru078             0.28950      10.00000      10.00000     121.00000       0.00000  
topohru079             0.04980      60.00000      60.00000     121.00000       0.00000  
topohru080             0.23566      10.00000      10.00000     121.00000       0.00000  
topohru081             0.14107      10.00000      10.00000     121.00000       0.00000  
topohru082             0.13554      10.00000      10.00000     121.00000       0.00000  
topohru083             0.14675      10.00000      10.00000     121.00000       0.00000  
topohru084             0.17793      10.00000      10.00000     121.00000       0.00000  
topohru085             0.18767      10.00000      10.00000     121.00000       0.00000  
topohru086             0.13535      10.00000      10.00000     121.00000       0.00000  
topohru087             0.14332      10.00000      10.00000     121.00000       0.00000  
topohru088             0.08615      10.00000      10.00000     121.00000       0.00000  
topohru089             0.15279      10.00000      10.00000     121.00000       0.00000  
topohru090             0.11647      10.00000      10.00000     121.00000       0.00000  
topohru091             0.14859      10.00000      10.00000     121.00000       0.00000  
topohru092             0.03712      60.00000      60.00000     121.00000       0.00000  
topohru093             0.07269      30.00000      30.00000     121.00000       0.00000  
topohru094             0.10159      10.00000      10.00000     121.00000       0.00000  
topohru095             0.07477      30.00000      30.00000     121.00000       0.00000  
topohru096             0.17319      10.00000      10.00000     121.00000       0.00000  
topohru097             0.06934      30.00000      30.00000     121.00000       0.00000  
topohru098             0.12670      10.00000      10.00000     121.00000       0.00000  
topohru099             0.09743      10.00000      10.00000     121.00000       0.00000  
topohru100             0.07242      30.00000      30.00000     121.00000       0.00000  
topohru101             0.07039      30.00000      30.00000     121.00000       0.00000  
topohru102             0.08100      10.00000      10.00000     121.00000       0.00000  
topohru103             0.06485      30.00000      30.00000     121.00000       0.00000  
topohru104             0.00000     121.00000     121.00000     121.00000       0.00000  
topohru105             0.07854      30.00000      30.00000     121.00000       0.00000  
topohru106             0.10635      10.00000      10.00000     121.00000       0.00000  
topohru107             0.15445      10.00000      10.00000     121.00000       0.00000  
topohru108             0.51453      10.00000      10.00000     121.00000       0.00000  
topohru109             0.11497      10.00000      10.00000     121.00000       0.00000  
topohru110             0.23699      10.00000      10.00000     121.00000       0.00000  
topohru111             0.24752      10.00000      10.00000     121.00000       0.00000  
topohru112             0.20337      10.00000      10.00000     121.00000       0.00000  
topohru113             0.70007      10.00000      10.00000     121.00000       0.00000  
topohru114             1.62125      10.00000      10.00000     121.00000       0.00000  
topohru115             0.30958      10.00000      10.00000     121.00000       0.00000  
topohru116             0.06067      30.00000      30.00000     121.00000       0.00000  
topohru117             0.24166      10.00000      10.00000     121.00000       0.00000  
topohru118             0.06079      30.00000      30.00000     121.00000       0.00000  
topohru119             0.04798      60.00000      60.00000     121.00000       0.00000  
topohru120             0.07344      30.00000      30.00000     121.00000       0.00000  
topohru121             0.06533      30.00000      30.00000     121.00000       0.00000  
topohru122             0.22724      10.00000      10.00000     121.00000       0.00000  
topohru123             0.04551      60.00000      60.00000     121.00000       0.00000  
topohru124             0.10060      10.00000      10.00000     121.00000       0.00000  
topohru125             0.21408      10.00000      10.00000     121.00000       0.00000  
topohru126             0.03242      60.00000      60.00000     121.00000       0.00000  
topohru127             0.06077      30.00000      30.00000     121.00000       0.00000  
topohru128             0.07848      30.00000      30.00000     121.00000       0.00000  
topohru129             0.15966      10.00000      10.00000     121.00000       0.00000  
topohru130             0.13101      10.00000      10.00000     121.00000       0.00000  
topohru131             0.09320      10.00000      10.00000     121.00000       0.00000  
topohru132             0.43761      10.00000      10.00000     121.00000       0.00000  
topohru133             0.11056      10.00000      10.00000     121.00000       0.00000  
topohru134             0.04495      60.00000      60.00000     121.00000       0.00000  
topohru135             0.14595      10.00000      10.00000     121.00000       0.00000  
topohru136             0.03914      60.00000      60.00000     121.00000       0.00000  
toportu010             0.09127     121.00000     121.00000     121.00000       0.00000  
toportu020             0.16185     121.00000     121.00000     121.00000       0.00000  
toportu030             0.13385     121.00000     121.00000     121.00000       0.00000  
toportu040             0.22927     121.00000     121.00000     121.00000       0.00000  
toportu050             0.20288     121.00000     121.00000     121.00000       0.00000  
toportu060             0.24738     121.00000     121.00000     121.00000       0.00000  
toportu070             0.15811     121.00000     121.00000     121.00000       0.00000  
toportu080             0.28432     121.00000     121.00000     121.00000       0.00000  
toportu090             0.09456     121.00000     121.00000     121.00000       0.00000  
toportu100             0.14383     121.00000     121.00000     121.00000       0.00000  
toportu110             0.07281     121.00000     121.00000     121.00000       0.00000  
