weather-wgn.cli: written by SWAT+ editor v1.3.0 on 2021-02-03 12:56
30s366e                        -2.96617      36.56250    1389.00000        32  
 tmp_max_ave   tmp_min_ave    tmp_max_sd    tmp_min_sd       pcp_ave        pcp_sd      pcp_skew       wet_dry       wet_wet      pcp_days       pcp_hhr       slr_ave       dew_ave       wnd_ave  
    28.41720      14.65800       3.08441       1.30347      55.03320       5.70488       6.70519       0.15152       0.39130       9.34375      27.27520      23.05930       0.65170       2.32753  
    29.75120      14.94820       2.57989       1.36188      36.46630       4.30880       7.93933       0.11982       0.39474       7.12500      21.78910      24.49290       0.57807       2.24913  
    28.94100      15.36090       3.08479       1.48770      79.23270       6.72726       6.49770       0.20451       0.41928      12.96880      31.02370      21.13030       0.63753       1.92361  
    25.24610      15.97880       2.97910       1.22664     137.07900       7.50477       4.23218       0.46154       0.44571      21.87500      28.50030      16.23480       0.77708       1.74756  
    23.38780      14.82940       2.78549       1.34798      49.09680       3.36910       4.74041       0.29225       0.41803      15.25000      12.84360      15.22220       0.79137       2.14876  
    23.47490      12.73740       2.50131       1.50827       6.42604       0.89195      10.49770       0.11453       0.26351       4.62500       5.85914      18.45460       0.72113       2.53285  
    23.55570      11.85200       2.44571       1.56097       3.19674       0.45209      10.32390       0.08408       0.18000       3.12500       3.01969      19.40260       0.66844       2.71880  
    25.12240      12.85140       2.84081       1.75275       4.81776       0.53992       8.30636       0.11758       0.25333       4.68750       3.35074      20.30080       0.61915       2.65449  
    27.97350      14.30220       3.24688       1.77180       7.12690       0.55677       3.34338       0.17600       0.27143       6.56250       1.71052      21.18070       0.57230       2.45012  
    28.34950      15.69360       3.37860       1.62371      24.38710       1.70835       3.58438       0.26341       0.32123      11.18750       4.77468      18.32760       0.58341       2.20472  
    26.44690      15.75320       3.33650       1.38231      89.00400       5.36329       4.43664       0.42577       0.42289      18.84380      17.67240      16.81930       0.69240       1.94521  
    26.86680      14.97390       2.93667       1.27978      67.04580       5.03846       6.06717       0.26004       0.40781      14.40620      25.67100      20.53090       0.70125       2.28525  
30s369e                        -2.96617      36.87500    1207.00000        32  
 tmp_max_ave   tmp_min_ave    tmp_max_sd    tmp_min_sd       pcp_ave        pcp_sd      pcp_skew       wet_dry       wet_wet      pcp_days       pcp_hhr       slr_ave       dew_ave       wnd_ave  
    26.39500      14.10540       2.93459       1.18378      84.16710       7.01164       5.25163       0.22513       0.41050      13.09380      24.23870      22.17620       0.69687       2.63149  
    28.45490      14.39140       2.84392       1.27829      58.76310       5.80082       7.34986       0.17676       0.37543       9.15625      32.63750      23.29380       0.61704       2.55823  
    27.70500      14.98630       3.24858       1.36605     103.24200       8.14848       7.30096       0.26448       0.41561      14.81250      43.33560      19.87280       0.67733       2.24287  
    24.19080      15.44590       3.18440       1.08870     154.07000       7.91805       4.07546       0.50556       0.45769      24.37500      24.36540      14.38900       0.81022       1.86319  
    22.04300      14.15650       2.72738       1.36537      68.04280       4.37712       6.13840       0.39142       0.42880      19.31250      21.21180      13.52350       0.82686       2.12500  
    22.18720      11.97830       2.48284       1.53043      12.48880       1.25392       8.28863       0.18723       0.33333       7.96875       7.71687      16.96180       0.76233       2.48007  
    22.28400      11.07910       2.46519       1.55483       7.12521       0.77721       9.94403       0.14057       0.25967       5.65625       5.37249      17.96250       0.70971       2.69035  
    23.63070      11.98570       2.87575       1.71439       9.96559       0.85517       6.04246       0.19597       0.28745       7.71875       3.73346      18.70460       0.66478       2.67662  
    26.23050      13.15170       3.21336       1.75166      10.72410       0.76806       3.52434       0.21326       0.30827       8.31250       2.67423      20.00090       0.62250       2.57511  
    26.45550      14.45970       3.28739       1.63613      27.18740       1.66470       3.23827       0.29298       0.37441      13.18750       4.60404      17.34420       0.63721       2.43558  
    24.57540      15.06660       3.17590       1.21455     101.29100       6.37657       5.81176       0.42525       0.44310      20.59380      26.31330      15.44580       0.74260       2.23916  
    24.75830      14.44300       2.82554       1.19274      94.90330       6.07319       5.73641       0.35930       0.42150      18.31250      31.37640      19.37790       0.75639       2.57474  
30s372e                        -2.96617      37.18750    2873.00000        32  
 tmp_max_ave   tmp_min_ave    tmp_max_sd    tmp_min_sd       pcp_ave        pcp_sd      pcp_skew       wet_dry       wet_wet      pcp_days       pcp_hhr       slr_ave       dew_ave       wnd_ave  
    23.93800      13.36440       2.58787       1.27945     131.20800       8.18179       4.07328       0.32118       0.41772      17.28120      30.45890      21.20880       0.75568       2.73356  
    25.91610      13.44390       2.60207       1.44180      98.68720       7.51073       5.75533       0.24324       0.39896      12.06250      40.09240      22.51510       0.67417       2.68845  
    25.09120      14.21100       2.73190       1.49331     150.51200       8.59931       5.23648       0.40625       0.41612      19.00000      35.37300      18.98340       0.73511       2.43577  
    22.33710      14.85390       2.64676       1.04987     193.55400       8.30341       4.12204       0.66667       0.48148      27.00000      27.26440      13.35500       0.84854       2.00525  
    20.71140      13.59030       2.51897       1.36584      93.04100       5.48161       6.34659       0.45560       0.45082      22.87500      26.90630      12.40260       0.85793       2.16969  
    20.84230      11.48020       2.36529       1.57469      22.39100       1.63000       4.66008       0.27986       0.36631      11.68750       6.59695      15.50460       0.79606       2.46428  
    20.82730      10.48360       2.40204       1.54005      14.16450       1.17345       7.83116       0.22431       0.31894       9.40625       7.37200      16.24220       0.74863       2.69893  
    21.74270      11.11100       2.78334       1.66286      20.34000       1.34744       5.65639       0.28299       0.37981      13.00000       5.94086      16.61660       0.71714       2.77079  
    23.90740      11.80040       2.87682       1.81347      21.30070       1.16239       2.90418       0.32700       0.37558      13.56250       3.85663      18.84230       0.68351       2.75368  
    24.03600      13.02840       2.85589       1.79727      47.51960       2.30943       3.28832       0.43641       0.40609      18.46880       9.45443      16.52210       0.70091       2.66131  
    22.32990      14.24250       2.70812       1.21593     142.04500       7.02272       5.85229       0.56897       0.46692      24.56250      34.12390      14.08270       0.80192       2.45063  
    22.28630      13.78360       2.50651       1.21705     146.25000       6.95578       4.05895       0.44747       0.45667      22.71880      29.02840      17.75950       0.82361       2.65137  
33s366e                        -3.27840      36.56250    1672.00000        32  
 tmp_max_ave   tmp_min_ave    tmp_max_sd    tmp_min_sd       pcp_ave        pcp_sd      pcp_skew       wet_dry       wet_wet      pcp_days       pcp_hhr       slr_ave       dew_ave       wnd_ave  
    30.09050      15.05780       3.52072       1.31846      50.23900       5.33851       6.31313       0.15374       0.39189       9.25000      19.33750      22.48490       0.63297       2.09837  
    31.30300      15.21360       3.06054       1.47762      33.14420       3.84839       6.84454       0.11594       0.38785       6.68750      20.03480      23.65740       0.56750       1.99922  
    29.93940      15.67290       3.34780       1.67182      67.60720       6.02916       6.54113       0.21697       0.37731      11.84380      25.99130      20.64850       0.63360       1.84222  
    25.69120      16.32000       2.99426       1.26848     111.22900       7.22002       4.71292       0.44224       0.44749      20.53120      23.60960      16.71010       0.77148       1.85763  
    23.22750      14.74510       2.78290       1.60636      38.84590       2.77288       5.29361       0.31855       0.40606      15.46880      11.02310      14.90630       0.80027       2.07704  
    22.84010      12.28050       2.55108       1.86135       6.90138       0.68932      10.96330       0.19441       0.22010       6.53125       5.12014      17.21540       0.75209       2.29938  
    22.88610      11.37620       2.56536       1.86248       5.32064       0.47077       6.70480       0.17289       0.20213       5.87500       2.77637      18.15960       0.70482       2.50053  
    24.49410      12.39160       2.70620       1.96836       5.09480       0.49381       7.52878       0.15233       0.23034       5.56250       2.93137      19.94320       0.65047       2.67659  
    27.21260      13.60320       2.76813       2.10586       4.93752       0.41915       3.57879       0.14861       0.21084       5.18750       1.59036      22.41650       0.59691       2.74093  
    28.25610      15.24080       2.77709       2.01603      14.57440       1.18203       4.20570       0.19750       0.30403       8.53125       3.86925      20.27620       0.59052       2.60414  
    27.64850      15.88450       3.15832       1.53144      59.08720       4.36404       5.40834       0.31524       0.41788      15.03120      18.57000      18.23760       0.66419       2.13414  
    28.41410      15.32460       3.23456       1.29798      58.00540       4.79949       6.65578       0.24648       0.40385      13.00000      23.19870      20.50360       0.67858       2.12438  
33s369e                        -3.27840      36.87500    1496.00000        32  
 tmp_max_ave   tmp_min_ave    tmp_max_sd    tmp_min_sd       pcp_ave        pcp_sd      pcp_skew       wet_dry       wet_wet      pcp_days       pcp_hhr       slr_ave       dew_ave       wnd_ave  
    28.87160      14.59680       3.52525       1.22669      70.70740       6.51111       5.58176       0.18850       0.40164      11.43750      25.73380      21.77420       0.66746       2.18946  
    31.17780      14.84520       3.60480       1.36322      49.34980       5.03433       6.74106       0.12828       0.40467       8.03125      27.92700      22.44650       0.59388       2.12503  
    29.53610      15.45280       3.74302       1.47340      90.97800       7.58875       6.82976       0.25472       0.40693      14.43750      34.84790      19.44990       0.66271       2.05000  
    24.73590      15.83680       3.15118       1.20428     141.61800       8.54342       4.94966       0.50467       0.45844      23.31250      33.76700      15.01230       0.80199       2.04248  
    22.00130      14.21020       2.64772       1.64176      59.55560       3.80048       4.56789       0.39594       0.42044      18.65620      12.62910      13.44870       0.83226       2.23605  
    21.76600      11.66740       2.47106       1.97926      10.61040       1.02747       9.73136       0.21097       0.26908       7.78125       7.21218      16.36620       0.78327       2.44651  
    21.83220      10.81740       2.50515       1.85999       7.69912       0.72443       9.75866       0.18407       0.25221       7.06250       5.08590      17.45700       0.73571       2.67754  
    23.26430      11.73530       2.66297       1.89930       7.85458       0.72111       6.61755       0.17010       0.26852       6.75000       3.49254      19.21760       0.68674       2.88422  
    25.74620      12.68610       2.70538       2.03554       6.88904       0.56428       4.15585       0.15556       0.27180       6.09375       2.32876      21.63790       0.64000       2.96624  
    26.55550      14.25210       2.69084       1.95247      18.51450       1.38996       4.03597       0.23952       0.31482      10.12500       4.71159      19.25210       0.63776       2.84405  
    26.15720      15.34940       2.94439       1.36058      74.44540       5.65457       6.11792       0.37055       0.40260      16.84380      22.79160      17.39170       0.70771       2.35281  
    27.00690      14.96330       3.23866       1.22813      78.66120       5.68796       6.55489       0.32174       0.40267      16.37500      30.75750      19.85450       0.72102       2.22221  
33s372e                        -3.27840      37.18750    1090.00000        32  
 tmp_max_ave   tmp_min_ave    tmp_max_sd    tmp_min_sd       pcp_ave        pcp_sd      pcp_skew       wet_dry       wet_wet      pcp_days       pcp_hhr       slr_ave       dew_ave       wnd_ave  
    26.83560      14.08870       3.17718       1.26221      96.51960       6.99357       4.49196       0.26628       0.40213      14.68750      27.42690      21.62640       0.71361       2.34691  
    28.96760      14.20390       3.18349       1.44762      70.64740       6.25851       6.26402       0.17755       0.39414       9.59375      35.09000      22.13390       0.63731       2.32479  
    27.29340      14.90150       3.14308       1.54397     132.53500       8.63815       5.50935       0.30926       0.43169      17.15620      37.12380      18.94990       0.70896       2.27191  
    23.07370      15.27750       2.76156       1.31025     225.68700       9.93143       4.05712       0.59483       0.47630      26.37500      35.82300      13.70950       0.84218       2.20019  
    20.64740      13.53110       2.45905       1.94204     106.47600       5.49318       3.53701       0.46015       0.44755      22.34380      17.00850      11.97040       0.87044       2.32848  
    20.54770      10.86820       2.37218       2.29497      19.53350       1.47885       4.73287       0.29215       0.32964      11.28120       6.44194      14.93230       0.81959       2.52068  
    20.68690      10.02700       2.47664       2.14538      13.49120       1.12727       8.75634       0.25510       0.29085       9.56250       7.50237      15.85040       0.77063       2.78501  
    21.87100      10.85240       2.65201       2.14880      15.94930       1.23891       6.66303       0.26875       0.33807      11.00000       5.92524      17.09150       0.72987       3.02175  
    24.13590      11.42420       2.68728       2.39883      14.95670       1.01380       4.17779       0.25760       0.34925      10.46880       4.08133      19.81660       0.69105       3.09361  
    24.81970      12.96390       2.59451       2.34621      38.62830       2.40657       3.39452       0.30961       0.39407      14.75000       5.95468      17.83040       0.69295       2.98498  
    24.28130      14.70750       2.52992       1.52194     119.77700       6.84175       4.89049       0.49481       0.44113      20.96880      25.53280      16.37770       0.76250       2.52102  
    24.88970      14.54100       2.83306       1.24580     114.02000       6.29001       4.50635       0.39017       0.42477      19.93750      28.26830      19.43160       0.77799       2.33166  
36s366e                        -3.59063      36.56250    1224.00000        32  
 tmp_max_ave   tmp_min_ave    tmp_max_sd    tmp_min_sd       pcp_ave        pcp_sd      pcp_skew       wet_dry       wet_wet      pcp_days       pcp_hhr       slr_ave       dew_ave       wnd_ave  
    30.78150      15.24650       3.48036       1.52866      48.81680       4.74868       6.08005       0.14986       0.40604       9.31250      21.73660      22.01830       0.62752       1.90757  
    31.94160      15.25040       3.07024       1.75823      33.57760       4.11908       6.96264       0.10145       0.42056       6.68750      19.17430      23.22670       0.57150       1.86251  
    30.41460      16.12550       3.11280       1.83975      61.42880       4.98795       5.16426       0.20896       0.39075      12.15620      19.40270      20.82980       0.63767       1.93533  
    26.41730      16.67020       3.03159       1.30804      77.62380       6.16598       6.58964       0.43732       0.42463      19.28120      27.48730      17.19150       0.76612       1.88526  
    23.63260      14.96880       3.00327       1.81994      31.46350       2.09489       5.84406       0.39374       0.40441      17.00000       9.08372      14.31460       0.80180       1.85184  
    23.08850      12.46370       2.82983       2.21049      11.57850       0.66773       5.03894       0.30420       0.31781      11.40620       3.73346      15.59620       0.76082       1.94468  
    23.20130      11.78880       2.86435       2.20639      10.36770       0.55647       2.39885       0.31327       0.29942      10.75000       1.76519      16.57100       0.70837       2.17761  
    24.71710      12.82870       2.92403       2.15913       7.92823       0.48830       3.66760       0.25779       0.26923       8.93750       2.16654      18.56680       0.65596       2.53950  
    27.36510      13.88500       2.80578       2.17024       4.45429       0.35444       2.81600       0.15044       0.21893       5.28125       1.12773      22.23890       0.60149       2.85545  
    28.68670      15.43650       2.66294       2.06840       8.72346       0.90314       6.87682       0.15995       0.23737       6.18750       4.54937      21.55070       0.58649       2.91273  
    28.54100      16.36360       2.89097       1.52101      36.66660       3.45269       7.85460       0.24422       0.35876      11.06250      19.86720      19.30530       0.63758       2.43541  
    29.25900      15.89230       3.21090       1.41628      60.86030       5.21062       6.83602       0.23037       0.40146      12.84380      22.17130      20.33480       0.65982       2.05436  
36s369e                        -3.59063      36.87500     959.00000        32  
 tmp_max_ave   tmp_min_ave    tmp_max_sd    tmp_min_sd       pcp_ave        pcp_sd      pcp_skew       wet_dry       wet_wet      pcp_days       pcp_hhr       slr_ave       dew_ave       wnd_ave  
    30.77830      15.41860       3.37268       1.51432      44.83400       4.86801       7.46926       0.13931       0.37828       8.34375      27.43560      21.79490       0.62913       2.07405  
    32.73350      15.51560       3.31559       1.70646      31.18750       4.26700       8.16371       0.09167       0.38587       5.75000      19.50030      22.55950       0.56782       2.09043  
    31.09330      16.38740       3.16822       1.74847      59.91400       5.40510       5.90755       0.18769       0.38012      10.68750      24.22490      20.56840       0.63601       2.25264  
    26.80760      16.78260       3.15081       1.33866      86.10760       7.30102       7.04497       0.38974       0.41403      17.81250      33.36800      17.43260       0.76198       2.19587  
    23.63990      15.04840       2.88160       1.84250      32.22160       2.36355       5.57400       0.32061       0.38116      14.59380      10.14540      14.79150       0.79829       2.12314  
    23.13370      12.52300       2.65048       2.23145       7.76510       0.68085       9.71536       0.21419       0.25311       7.53125       4.85819      16.29970       0.75625       2.19868  
    23.19770      11.70000       2.68521       2.18667       6.36671       0.48845       4.87142       0.18912       0.25455       6.87500       2.43030      17.26310       0.70977       2.45992  
    24.57190      12.60990       2.75827       2.14124       4.25549       0.43529       7.30424       0.13555       0.19867       4.71875       2.45733      19.62460       0.66485       2.86923  
    27.04950      13.39730       2.62950       2.16919       2.46750       0.29468       5.24591       0.08966       0.10000       2.81250       1.31158      23.24670       0.61979       3.17321  
    28.26990      14.99200       2.51552       2.07381       7.15584       0.90155       6.39368       0.09767       0.25000       4.12500       3.57785      22.11370       0.60776       3.22533  
    28.29200      16.26670       2.57532       1.48349      36.86910       3.78492       7.64393       0.22187       0.35000      10.00000      18.79230      19.97110       0.65317       2.76569  
    29.12110      16.04980       3.06118       1.39070      53.34180       5.01007       8.24191       0.23833       0.37240      12.00000      26.86720      20.52000       0.66927       2.24519  
36s372e                        -3.59063      37.18750    1159.00000        32  
 tmp_max_ave   tmp_min_ave    tmp_max_sd    tmp_min_sd       pcp_ave        pcp_sd      pcp_skew       wet_dry       wet_wet      pcp_days       pcp_hhr       slr_ave       dew_ave       wnd_ave  
    30.73870      15.63730       2.97115       1.51976      33.66650       4.02973       7.11982       0.13559       0.35556       7.03125      20.29790      23.07470       0.63189       2.27231  
    32.53750      15.61960       2.86921       1.78442      24.36110       3.72418       9.84140       0.08378       0.39474       4.75000      23.00520      23.23760       0.57116       2.33318  
    31.13800      16.44130       2.68280       1.91058      49.89370       5.44840       7.71691       0.16189       0.37075       9.18750      28.72800      21.45260       0.63846       2.43984  
    27.04710      16.87110       2.91604       1.58118      89.32560       8.28118       8.09358       0.41872       0.40072      17.31250      40.33630      18.11770       0.75947       2.27677  
    23.89190      14.75180       2.75426       2.24868      33.76590       2.46339       4.66875       0.28319       0.37089      13.31250       8.63611      15.14170       0.80053       2.08213  
    23.44710      11.88620       2.50416       2.50003       7.05963       0.66448       6.97476       0.17038       0.24366       6.15625       3.90409      16.71260       0.76105       2.15479  
    23.52080      11.00980       2.58110       2.48892       5.35095       0.49065       6.34149       0.15300       0.22286       5.46875       2.68684      17.55250       0.71693       2.40788  
    24.79720      11.97240       2.62803       2.47662       4.31203       0.50361       7.94343       0.11202       0.22963       4.21875       2.79619      19.62720       0.67612       2.81411  
    27.07510      12.67210       2.52559       2.52710       2.93364       0.33754       5.82929       0.09930       0.15385       3.25000       1.71292      22.99430       0.63702       3.08777  
    28.27370      14.43260       2.40730       2.52122       8.03137       0.89876       5.86741       0.11205       0.27778       5.06250       3.65836      22.29440       0.62614       3.14570  
    28.49970      16.27950       2.26163       1.73526      33.73200       3.91344       7.61344       0.20030       0.33566       8.93750      18.41620      21.32100       0.66612       2.81093  
    29.13590      16.32030       2.67273       1.41115      40.10670       4.07916       8.19750       0.22512       0.32628      10.34380      20.98950      22.16980       0.67915       2.36790  
39s366e                        -3.90286      36.56250    1408.00000        32  
 tmp_max_ave   tmp_min_ave    tmp_max_sd    tmp_min_sd       pcp_ave        pcp_sd      pcp_skew       wet_dry       wet_wet      pcp_days       pcp_hhr       slr_ave       dew_ave       wnd_ave  
    29.41750      15.06140       3.33381       1.79344     103.14000       6.93482       4.32600       0.23640       0.41176      14.34380      28.00310      20.51840       0.66521       1.84540  
    30.40340      14.90430       2.94004       2.01558      69.93200       6.59793       6.13335       0.16610       0.40313      10.00000      29.93500      22.05000       0.61924       1.86756  
    29.22400      16.10010       3.02747       1.86041     107.81400       6.85822       4.46561       0.30324       0.43571      17.50000      23.70150      19.50190       0.68319       2.03638  
    25.48840      16.53890       2.98799       1.20242      95.99610       6.15364       6.01966       0.56075       0.44638      23.31250      26.05010      15.08480       0.79830       1.93130  
    22.86850      15.12960       3.16212       1.60821      45.03120       2.33021       4.64058       0.52104       0.42669      21.31250       7.92655      12.01790       0.82451       1.84573  
    22.57880      12.90010       3.10535       2.15771      21.20990       0.91512       2.05716       0.40397       0.38461      15.84380       2.87430      13.80130       0.77383       1.91629  
    22.83680      12.28230       3.12399       2.12076      18.94640       0.80797       2.03370       0.41224       0.37450      15.68750       2.27408      14.81390       0.71456       2.19058  
    24.14980      13.08450       3.24308       2.00650      16.53920       0.73284       2.85091       0.41829       0.35146      14.93750       2.88511      16.46310       0.67077       2.61729  
    26.71540      13.81310       3.02672       2.02192       9.50556       0.60028       4.06495       0.27162       0.28571       9.40625       2.76495      20.40250       0.62180       2.99464  
    28.02270      15.12350       2.82298       1.94770      12.37830       1.15400       6.13904       0.20981       0.28295       8.06250       4.68996      20.07820       0.60659       3.10609  
    27.84380      16.31440       2.75208       1.47803      53.46010       4.28157       7.67143       0.25617       0.42032      13.53120      25.68480      17.86820       0.65019       2.64137  
    28.16850      16.09410       3.12047       1.52210     127.45400       7.65367       4.22956       0.31401       0.43333      17.81250      29.03320      18.37600       0.68495       2.06163  
39s369e                        -3.90286      36.87500    1218.00000        32  
 tmp_max_ave   tmp_min_ave    tmp_max_sd    tmp_min_sd       pcp_ave        pcp_sd      pcp_skew       wet_dry       wet_wet      pcp_days       pcp_hhr       slr_ave       dew_ave       wnd_ave  
    29.81310      15.56320       3.09461       1.79520      85.49670       6.58178       5.56457       0.19101       0.39566      11.53120      34.07370      20.61880       0.65116       2.16438  
    31.51510      15.43840       3.02119       2.02882      61.61060       6.35556       6.12361       0.14175       0.38550       8.18750      29.92030      21.88040       0.59988       2.22080  
    30.33340      16.56170       3.00291       1.90715     112.91500       7.61819       3.74753       0.26829       0.40087      14.34380      22.51070      19.97330       0.66675       2.42806  
    26.52700      16.98300       3.07059       1.22080     109.82000       7.66470       6.03776       0.46326       0.43277      20.21880      30.06540      16.18650       0.77946       2.28475  
    23.53110      15.46340       2.99512       1.65801      38.32390       2.30971       4.32955       0.41723       0.38909      17.18750       8.48952      13.04980       0.80491       2.15677  
    23.15980      13.23300       2.85331       2.18465      13.55930       0.78636       4.37518       0.30887       0.33155      11.68750       3.89448      14.62170       0.75498       2.22550  
    23.26090      12.47200       2.86290       2.16544      11.58770       0.64473       3.06586       0.30421       0.30769      10.96880       2.39425      15.44430       0.70487       2.53298  
    24.42310      13.19580       2.94986       2.06417       8.78670       0.61542       5.57357       0.24579       0.29286       8.75000       3.25822      17.41920       0.66697       3.00540  
    26.84420      13.71310       2.76713       2.07273       4.52043       0.45866       7.02182       0.14677       0.19872       4.87500       2.40266      21.43730       0.62758       3.33888  
    28.16130      15.05360       2.58647       2.02173       9.53343       1.23687       7.83531       0.11928       0.27778       5.06250       6.34521      20.99810       0.61523       3.44275  
    28.18630      16.43440       2.45258       1.52248      51.39240       4.37571       5.80813       0.20361       0.39601      10.96880      21.16790      18.92450       0.65443       3.06343  
    28.49520      16.51040       2.85262       1.49462     114.82300       7.27967       4.51481       0.29400       0.40519      15.65620      32.49810      18.90070       0.68185       2.42046  
39s372e                        -3.90286      37.18750    1054.00000        32  
 tmp_max_ave   tmp_min_ave    tmp_max_sd    tmp_min_sd       pcp_ave        pcp_sd      pcp_skew       wet_dry       wet_wet      pcp_days       pcp_hhr       slr_ave       dew_ave       wnd_ave  
    31.49890      16.07180       2.81049       1.91209      35.70400       4.14698      10.01500       0.12226       0.33953       6.71875      29.19480      22.70620       0.62327       2.33709  
    33.31860      15.82820       2.82136       2.20785      25.98830       3.72533       8.09189       0.08533       0.36364       4.81250      18.43660      23.47680       0.57166       2.39586  
    32.31510      16.95480       2.63958       2.25255      48.22710       4.93953       6.07449       0.16854       0.33929       8.75000      19.73860      22.13590       0.63321       2.48396  