wetland.wet: written by SWAT+ editor v1.3.0 on 2021-02-03 12:56
      id  name                          init               hyd               rel               sed               nut  
       1  wet017                    initwet1         hydwet017           wetland           sedwet1           nutwet1  
       2  wet043                    initwet1         hydwet043           wetland           sedwet1           nutwet1  
       3  wet104                    initwet1         hydwet104           wetland           sedwet1           nutwet1  
