aqu_catunit.ele: written by SWAT+ editor v1.2.3 on 2020-07-08 09:06
      id  name                   obj_typ  obj_typ_no      bsn_frac      sub_frac      reg_frac  
       1  aqu10                      aqu           1       0.13801       0.00000       0.00000  
       2  aqu20                      aqu           2       0.22112       0.00000       0.00000  
       3  aqu30                      aqu           3       0.20538       0.00000       0.00000  
       4  aqu40                      aqu           4       0.14457       0.00000       0.00000  
       5  aqu50                      aqu           5       0.03315       0.00000       0.00000  
       6  aqu60                      aqu           6       0.07296       0.00000       0.00000  
       7  aqu70                      aqu           7       0.00537       0.00000       0.00000  
       8  aqu80                      aqu           8       0.11792       0.00000       0.00000  
       9  aqu90                      aqu           9       0.06151       0.00000       0.00000  
      10  aqu_deep7                  aqu          10       1.00000       0.00000       0.00000  
