aquifer.con: written by SWAT+ editor v1.2.3 on 2020-07-08 09:05
      id  name                gis_id          area           lat           lon          elev       aqu               wst       cst      ovfl      rule   out_tot       obj_typ    obj_id       hyd_typ          frac  
       1  aqu10                   10     231.21000      11.67806      37.45040    1834.10821         1     sta1171n3750e         0         0         0         2           sdc        22           tot       1.00000           aqu        10           rhg       1.00000  
       2  aqu20                   20     370.44000      11.66541      37.47577    1912.96526         2     sta1171n3750e         0         0         0         2           sdc         4           tot       1.00000           aqu        10           rhg       1.00000  
       3  aqu30                   30     344.07000      11.66496      37.45360    1859.10986         3     sta1171n3750e         0         0         0         2           sdc        25           tot       1.00000           aqu        10           rhg       1.00000  
       4  aqu40                   40     242.19000      11.66043      37.46709    1914.21999         4     sta1171n3750e         0         0         0         2           sdc         7           tot       1.00000           aqu        10           rhg       1.00000  
       5  aqu50                   50      55.53000      11.66589      37.43542    1796.91734         5     sta1171n3750e         0         0         0         2           sdc        54           tot       1.00000           aqu        10           rhg       1.00000  
       6  aqu60                   60     122.22000      11.66009      37.44558    1850.66053         6     sta1171n3750e         0         0         0         2           sdc        59           tot       1.00000           aqu        10           rhg       1.00000  
       7  aqu70                   70       9.00000      11.66010      37.42752    1790.94000         7     sta1171n3750e         0         0         0         2           sdc        53           tot       1.00000           aqu        10           rhg       1.00000  
       8  aqu80                   80     197.55000      11.64935      37.48874    1981.91025         8     sta1171n3750e         0         0         0         2           sdc        57           tot       1.00000           aqu        10           rhg       1.00000  
       9  aqu90                   90     103.05000      11.64886      37.47776    1974.94061         9     sta1171n3750e         0         0         0         2           sdc        58           tot       1.00000           aqu        10           rhg       1.00000  
      10  aqu_deep7                7    1675.26000      11.66010      37.42752    1790.94000        10     sta1171n3750e         0         0         0         0  
