aquifer.aqu: written by SWAT+ editor v1.2.3 on 2020-07-08 09:06
      id  name                          init        gw_flo       dep_bot        dep_wt         no3_n         sol_p         ptl_n         ptl_p        bf_max      alpha_bf         revap       rchg_dp      spec_yld       hl_no3n       flo_min     revap_min  
       1  aqu10                     initaqu1       0.05000      10.00000       3.00000       0.00000       0.00000       0.00000       0.00000       1.00000       0.05000       0.02000       0.05000       0.05000       0.00000       3.00000       5.00000  
       2  aqu20                     initaqu1       0.05000      10.00000       3.00000       0.00000       0.00000       0.00000       0.00000       1.00000       0.05000       0.02000       0.05000       0.05000       0.00000       3.00000       5.00000  
       3  aqu30                     initaqu1       0.05000      10.00000       3.00000       0.00000       0.00000       0.00000       0.00000       1.00000       0.05000       0.02000       0.05000       0.05000       0.00000       3.00000       5.00000  
       4  aqu40                     initaqu1       0.05000      10.00000       3.00000       0.00000       0.00000       0.00000       0.00000       1.00000       0.05000       0.02000       0.05000       0.05000       0.00000       3.00000       5.00000  
       5  aqu50                     initaqu1       0.05000      10.00000       3.00000       0.00000       0.00000       0.00000       0.00000       1.00000       0.05000       0.02000       0.05000       0.05000       0.00000       3.00000       5.00000  
       6  aqu60                     initaqu1       0.05000      10.00000       3.00000       0.00000       0.00000       0.00000       0.00000       1.00000       0.05000       0.02000       0.05000       0.05000       0.00000       3.00000       5.00000  
       7  aqu70                     initaqu1       0.05000      10.00000       3.00000       0.00000       0.00000       0.00000       0.00000       1.00000       0.05000       0.02000       0.05000       0.05000       0.00000       3.00000       5.00000  
       8  aqu80                     initaqu1       0.05000      10.00000       3.00000       0.00000       0.00000       0.00000       0.00000       1.00000       0.05000       0.02000       0.05000       0.05000       0.00000       3.00000       5.00000  
       9  aqu90                     initaqu1       0.05000      10.00000       3.00000       0.00000       0.00000       0.00000       0.00000       1.00000       0.05000       0.02000       0.05000       0.05000       0.00000       3.00000       5.00000  
      10  aqu_deep7                 initaqu1       0.00000     100.00000      20.00000       0.00000       0.00000       0.00000       0.00000       1.00000       0.01000       0.00000       0.00000       0.03000       0.00000       0.00000       0.00000  
