channel-lte.cha: written by SWAT+ editor v1.2.3 on 2020-07-08 09:06
      id  name                       cha_ini           cha_hyd           cha_sed           cha_nut  
       1  cha01                     initcha1          hydcha01              null           nutcha1  
       2  cha02                     initcha1          hydcha02              null           nutcha1  
       3  cha03                     initcha1          hydcha03              null           nutcha1  
       4  cha04                     initcha1          hydcha04              null           nutcha1  
       5  cha05                     initcha1          hydcha05              null           nutcha1  
       6  cha06                     initcha1          hydcha06              null           nutcha1  
       7  cha07                     initcha1          hydcha07              null           nutcha1  
       8  cha08                     initcha1          hydcha08              null           nutcha1  
       9  cha09                     initcha1          hydcha09              null           nutcha1  
      10  cha10                     initcha1          hydcha10              null           nutcha1  
      11  cha11                     initcha1          hydcha11              null           nutcha1  
      12  cha12                     initcha1          hydcha12              null           nutcha1  
      13  cha13                     initcha1          hydcha13              null           nutcha1  
      14  cha14                     initcha1          hydcha14              null           nutcha1  
      15  cha15                     initcha1          hydcha15              null           nutcha1  
      16  cha16                     initcha1          hydcha16              null           nutcha1  
      17  cha17                     initcha1          hydcha17              null           nutcha1  
      18  cha18                     initcha1          hydcha18              null           nutcha1  
      19  cha19                     initcha1          hydcha19              null           nutcha1  
      20  cha20                     initcha1          hydcha20              null           nutcha1  
      21  cha21                     initcha1          hydcha21              null           nutcha1  
      22  cha22                     initcha1          hydcha22              null           nutcha1  
      23  cha23                     initcha1          hydcha23              null           nutcha1  
      24  cha24                     initcha1          hydcha24              null           nutcha1  
      25  cha25                     initcha1          hydcha25              null           nutcha1  
      26  cha26                     initcha1          hydcha26              null           nutcha1  
      27  cha27                     initcha1          hydcha27              null           nutcha1  
      28  cha28                     initcha1          hydcha28              null           nutcha1  
      29  cha29                     initcha1          hydcha29              null           nutcha1  
      30  cha30                     initcha1          hydcha30              null           nutcha1  
      31  cha31                     initcha1          hydcha31              null           nutcha1  
      32  cha32                     initcha1          hydcha32              null           nutcha1  
      33  cha33                     initcha1          hydcha33              null           nutcha1  
      34  cha34                     initcha1          hydcha34              null           nutcha1  
      35  cha35                     initcha1          hydcha35              null           nutcha1  
      36  cha36                     initcha1          hydcha36              null           nutcha1  
      37  cha37                     initcha1          hydcha37              null           nutcha1  
      38  cha38                     initcha1          hydcha38              null           nutcha1  
      39  cha39                     initcha1          hydcha39              null           nutcha1  
      40  cha40                     initcha1          hydcha40              null           nutcha1  
      41  cha41                     initcha1          hydcha41              null           nutcha1  
      42  cha42                     initcha1          hydcha42              null           nutcha1  
      43  cha43                     initcha1          hydcha43              null           nutcha1  
      44  cha44                     initcha1          hydcha44              null           nutcha1  
      45  cha45                     initcha1          hydcha45              null           nutcha1  
      46  cha46                     initcha1          hydcha46              null           nutcha1  
      47  cha47                     initcha1          hydcha47              null           nutcha1  
      48  cha48                     initcha1          hydcha48              null           nutcha1  
      49  cha49                     initcha1          hydcha49              null           nutcha1  
      50  cha50                     initcha1          hydcha50              null           nutcha1  
      51  cha51                     initcha1          hydcha51              null           nutcha1  
      52  cha52                     initcha1          hydcha52              null           nutcha1  
      53  cha53                     initcha1          hydcha53              null           nutcha1  
      54  cha54                     initcha1          hydcha54              null           nutcha1  
      55  cha55                     initcha1          hydcha55              null           nutcha1  
      56  cha56                     initcha1          hydcha56              null           nutcha1  
      57  cha57                     initcha1          hydcha57              null           nutcha1  
      58  cha58                     initcha1          hydcha58              null           nutcha1  
      59  cha59                     initcha1          hydcha59              null           nutcha1  
      60  cha60                     initcha1          hydcha60              null           nutcha1  
      61  cha61                     initcha1          hydcha61              null           nutcha1  
      62  cha62                     initcha1          hydcha62              null           nutcha1  
      63  cha63                     initcha1          hydcha63              null           nutcha1  
      64  cha64                     initcha1          hydcha64              null           nutcha1  
      65  cha65                     initcha1          hydcha65              null           nutcha1  
      66  cha66                     initcha1          hydcha66              null           nutcha1  
      67  cha67                     initcha1          hydcha67              null           nutcha1  
      68  cha68                     initcha1          hydcha68              null           nutcha1  
      69  cha69                     initcha1          hydcha69              null           nutcha1  
      70  cha70                     initcha1          hydcha70              null           nutcha1  
      71  cha71                     initcha1          hydcha71              null           nutcha1  
      72  cha72                     initcha1          hydcha72              null           nutcha1  
      73  cha73                     initcha1          hydcha73              null           nutcha1  
      74  cha74                     initcha1          hydcha74              null           nutcha1  
      75  cha75                     initcha1          hydcha75              null           nutcha1  
      76  cha76                     initcha1          hydcha76              null           nutcha1  
      77  cha77                     initcha1          hydcha77              null           nutcha1  
      78  cha78                     initcha1          hydcha78              null           nutcha1  
      79  cha79                     initcha1          hydcha79              null           nutcha1  
      80  cha80                     initcha1          hydcha80              null           nutcha1  
      81  cha81                     initcha1          hydcha81              null           nutcha1  
      82  cha82                     initcha1          hydcha82              null           nutcha1  
      83  cha83                     initcha1          hydcha83              null           nutcha1  
      84  cha84                     initcha1          hydcha84              null           nutcha1  
      85  cha85                     initcha1          hydcha85              null           nutcha1  
      86  cha86                     initcha1          hydcha86              null           nutcha1  
      87  cha87                     initcha1          hydcha87              null           nutcha1  
      88  cha88                     initcha1          hydcha88              null           nutcha1  
      89  cha89                     initcha1          hydcha89              null           nutcha1  
      90  cha90                     initcha1          hydcha90              null           nutcha1  
      91  cha91                     initcha1          hydcha91              null           nutcha1  
