chandeg.con: written by SWAT+ editor v1.2.3 on 2020-07-08 09:06
      id  name                gis_id          area           lat           lon          elev      lcha               wst       cst      ovfl      rule   out_tot       obj_typ    obj_id       hyd_typ          frac  
       1  cha01                    1    1057.14000      11.67545      37.44835             0         1     sta1171n3750e         0         0         0         1           sdc        22           tot       1.00000  
       2  cha02                    2     972.00000      11.67801      37.45740             0         2     sta1171n3750e         0         0         0         1           sdc         1           tot       1.00000  
       3  cha03                    3     918.81000      11.67666      37.45991             0         3     sta1171n3750e         0         0         0         1           sdc         2           tot       1.00000  
       4  cha04                    4     671.04000      11.67597      37.46188             0         4     sta1171n3750e         0         0         0         1           sdc         3           tot       1.00000  
       5  cha05                    5     650.70000      11.67448      37.46491             0         5     sta1171n3750e         0         0         0         1           sdc         4           tot       1.00000  
       6  cha06                    6     591.03000      11.66926      37.46770             0         6     sta1171n3750e         0         0         0         1           sdc         5           tot       1.00000  
       7  cha07                    7     242.19000      11.67523      37.46008             0         7     sta1171n3750e         0         0         0         1           sdc         3           tot       1.00000  
       8  cha08                    8     227.52000      11.66867      37.46314             0         8     sta1171n3750e         0         0         0         1           sdc         7           tot       1.00000  
       9  cha09                    9      45.36000      11.67290      37.46808             0         9     sta1171n3750e         0         0         0         1           sdc         5           tot       1.00000  
      10  cha10                   10      78.93000      11.67623      37.44386             0        10     sta1171n3750e         0         0         0         1           sdc        22           tot       1.00000  
      11  cha11                   11      34.56000      11.67870      37.45310             0        11     sta1171n3750e         0         0         0         1           sdc         1           tot       1.00000  
      12  cha12                   12      14.49000      11.67082      37.45417             0        12     sta1171n3750e         0         0         0         1           sdc        36           tot       1.00000  
      13  cha13                   13      45.00000      11.68176      37.44587             0        13     sta1171n3750e         0         0         0         1           sdc        10           tot       1.00000  
      14  cha14                   14      14.22000      11.68130      37.45536             0        14     sta1171n3750e         0         0         0         1           sdc        11           tot       1.00000  
      15  cha15                   15      14.04000      11.67092      37.45983             0        15     sta1171n3750e         0         0         0         1           sdc         7           tot       1.00000  
      16  cha16                   16      23.67000      11.67332      37.45424             0        16     sta1171n3750e         0         0         0         1           sdc        36           tot       1.00000  
      17  cha17                   17      12.33000      11.67632      37.46624             0        17     sta1171n3750e         0         0         0         1           sdc         4           tot       1.00000  
      18  cha18                   18      18.45000      11.67393      37.45800             0        18     sta1171n3750e         0         0         0         1           sdc         2           tot       1.00000  
      19  cha19                   19      17.91000      11.67962      37.44779             0        19     sta1171n3750e         0         0         0         1           sdc        10           tot       1.00000  
      20  cha20                   20      17.91000      11.68083      37.45208             0        20     sta1171n3750e         0         0         0         1           sdc        11           tot       1.00000  
      21  cha21                   21    1509.57000      11.66916      37.43784             0        21     sta1171n3750e         0         0         0         1           sdc        54           tot       1.00000  
      22  cha22                   22    1144.44000      11.67258      37.44018             0        22     sta1171n3750e         0         0         0         1           sdc        21           tot       1.00000  
      23  cha23                   23     552.96000      11.66711      37.47210             0        23     sta1171n3750e         0         0         0         1           sdc         6           tot       1.00000  
      24  cha24                   24     508.50000      11.66650      37.47414             0        24     sta1171n3750e         0         0         0         1           sdc        23           tot       1.00000  
      25  cha25                   25     344.07000      11.67092      37.43921             0        25     sta1171n3750e         0         0         0         1           sdc        21           tot       1.00000  
      26  cha26                   26     481.59000      11.66513      37.47584             0        26     sta1171n3750e         0         0         0         1           sdc        24           tot       1.00000  
      27  cha27                   27     461.52000      11.66458      37.47778             0        27     sta1171n3750e         0         0         0         1           sdc        26           tot       1.00000  
      28  cha28                   28     435.60000      11.66384      37.47773             0        28     sta1171n3750e         0         0         0         1           sdc        27           tot       1.00000  
      29  cha29                   29      15.84000      11.67199      37.44442             0        29     sta1171n3750e         0         0         0         1           sdc        25           tot       1.00000  
      30  cha30                   30     327.96000      11.67036      37.43972             0        30     sta1171n3750e         0         0         0         1           sdc        25           tot       1.00000  
      31  cha31                   31     312.39000      11.66973      37.44319             0        31     sta1171n3750e         0         0         0         1           sdc        30           tot       1.00000  
      32  cha32                   32     231.93000      11.66762      37.44673             0        32     sta1171n3750e         0         0         0         1           sdc        31           tot       1.00000  
      33  cha33                   33      67.14000      11.66993      37.44679             0        33     sta1171n3750e         0         0         0         1           sdc        31           tot       1.00000  
      34  cha34                   34     142.29000      11.66305      37.46516             0        34     sta1171n3750e         0         0         0         1           sdc         8           tot       1.00000  
      35  cha35                   35     203.04000      11.66440      37.45131             0        35     sta1171n3750e         0         0         0         1           sdc        32           tot       1.00000  
      36  cha36                   36      48.06000      11.67191      37.44964             0        36     sta1171n3750e         0         0         0         1           sdc        33           tot       1.00000  
      37  cha37                   37      23.22000      11.65920      37.47525             0        37     sta1171n3750e         0         0         0         1           sdc        27           tot       1.00000  
      38  cha38                   38      30.60000      11.66288      37.46933             0        38     sta1171n3750e         0         0         0         1           sdc         8           tot       1.00000  
      39  cha39                   39      10.71000      11.67292      37.47127             0        39     sta1171n3750e         0         0         0         1           sdc         9           tot       1.00000  
      40  cha40                   40      36.00000      11.66870      37.47416             0        40     sta1171n3750e         0         0         0         1           sdc        23           tot       1.00000  
      41  cha41                   41      16.65000      11.66254      37.47350             0        41     sta1171n3750e         0         0         0         1           sdc        24           tot       1.00000  
      42  cha42                   42      11.70000      11.66608      37.45817             0        42     sta1171n3750e         0         0         0         1           sdc        63           tot       1.00000  
      43  cha43                   43      14.40000      11.66618      37.47972             0        43     sta1171n3750e         0         0         0         1           sdc        26           tot       1.00000  
      44  cha44                   44       8.91000      11.66653      37.43873             0        44     sta1171n3750e         0         0         0         1           sdc        54           tot       1.00000  
      45  cha45                   45      14.22000      11.66735      37.45033             0        45     sta1171n3750e         0         0         0         1           sdc        32           tot       1.00000  
      46  cha46                   46      18.27000      11.66754      37.45616             0        46     sta1171n3750e         0         0         0         1           sdc        63           tot       1.00000  
      47  cha47                   47       9.18000      11.66584      37.47067             0        47     sta1171n3750e         0         0         0         1           sdc         6           tot       1.00000  
      48  cha48                   48      13.68000      11.66745      37.44244             0        48     sta1171n3750e         0         0         0         1           sdc        30           tot       1.00000  
      49  cha49                   49      15.75000      11.66812      37.47857             0        49     sta1171n3750e         0         0         0         1           sdc        40           tot       1.00000  
      50  cha50                   50      15.66000      11.67021      37.47761             0        50     sta1171n3750e         0         0         0         1           sdc        40           tot       1.00000  
      51  cha51                   51      13.14000      11.66964      37.45139             0        51     sta1171n3750e         0         0         0         1           sdc        33           tot       1.00000  
      52  cha52                   52      17.64000      11.67115      37.47259             0        52     sta1171n3750e         0         0         0         1           sdc         9           tot       1.00000  
      53  cha53                   53    1674.90000      11.66010      37.42752             0        53     sta1171n3750e         0         0         0         0  
      54  cha54                   54    1544.04000      11.66297      37.43228             0        54     sta1171n3750e         0         0         0         1           sdc        53           tot       1.00000  
      55  cha55                   55     395.37000      11.65952      37.47873             0        55     sta1171n3750e         0         0         0         1           sdc        28           tot       1.00000  
      56  cha56                   56     317.34000      11.65634      37.48039             0        56     sta1171n3750e         0         0         0         1           sdc        55           tot       1.00000  
      57  cha57                   57     197.55000      11.65454      37.48273             0        57     sta1171n3750e         0         0         0         1           sdc        56           tot       1.00000  
      58  cha58                   58     103.05000      11.65198      37.47820             0        58     sta1171n3750e         0         0         0         1           sdc        56           tot       1.00000  
      59  cha59                   59     122.22000      11.66122      37.44436             0        59     sta1171n3750e         0         0         0         1           sdc        53           tot       1.00000  
      60  cha60                   60     123.12000      11.66129      37.46583             0        60     sta1171n3750e         0         0         0         1           sdc        34           tot       1.00000  
      61  cha61                   61      89.46000      11.65989      37.46562             0        61     sta1171n3750e         0         0         0         1           sdc        60           tot       1.00000  
      62  cha62                   62      74.70000      11.65418      37.46687             0        62     sta1171n3750e         0         0         0         1           sdc        61           tot       1.00000  
      63  cha63                   63      36.63000      11.66434      37.45437             0        63     sta1171n3750e         0         0         0         1           sdc        35           tot       1.00000  
      64  cha64                   64      39.33000      11.66362      37.48245             0        64     sta1171n3750e         0         0         0         1           sdc        28           tot       1.00000  
      65  cha65                   65     136.53000      11.66230      37.45373             0        65     sta1171n3750e         0         0         0         1           sdc        35           tot       1.00000  
      66  cha66                   66      91.71000      11.66306      37.45612             0        66     sta1171n3750e         0         0         0         1           sdc        65           tot       1.00000  
      67  cha67                   67      42.21000      11.66031      37.45476             0        67     sta1171n3750e         0         0         0         1           sdc        65           tot       1.00000  
      68  cha68                   68      41.22000      11.65842      37.48276             0        68     sta1171n3750e         0         0         0         1           sdc        55           tot       1.00000  
      69  cha69                   69      19.80000      11.65553      37.45513             0        69     sta1171n3750e         0         0         0         1           sdc        67           tot       1.00000  
      70  cha70                   70      11.52000      11.65476      37.45268             0        70     sta1171n3750e         0         0         0         1           sdc        59           tot       1.00000  
      71  cha71                   71       8.91000      11.65408      37.45035             0        71     sta1171n3750e         0         0         0         1           sdc        59           tot       1.00000  
      72  cha72                   72      32.04000      11.65661      37.47138             0        72     sta1171n3750e         0         0         0         1           sdc        60           tot       1.00000  
      73  cha73                   73      21.33000      11.65673      37.48713             0        73     sta1171n3750e         0         0         0         1           sdc        68           tot       1.00000  
      74  cha74                   74      40.05000      11.65742      37.45936             0        74     sta1171n3750e         0         0         0         1           sdc        66           tot       1.00000  
      75  cha75                   75       9.27000      11.65660      37.46886             0        75     sta1171n3750e         0         0         0         1           sdc        61           tot       1.00000  
      76  cha76                   76      12.06000      11.65985      37.48590             0        76     sta1171n3750e         0         0         0         1           sdc        68           tot       1.00000  
      77  cha77                   77       9.00000      11.65764      37.45664             0        77     sta1171n3750e         0         0         0         1           sdc        67           tot       1.00000  
      78  cha78                   78       9.27000      11.65998      37.46979             0        78     sta1171n3750e         0         0         0         1           sdc        34           tot       1.00000  
      79  cha79                   79      44.82000      11.66181      37.46124             0        79     sta1171n3750e         0         0         0         1           sdc        66           tot       1.00000  
      80  cha80                   80     159.84000      11.65114      37.48702             0        80     sta1171n3750e         0         0         0         1           sdc        57           tot       1.00000  
      81  cha81                   81      67.59000      11.64827      37.48938             0        81     sta1171n3750e         0         0         0         1           sdc        80           tot       1.00000  
      82  cha82                   82      37.80000      11.64755      37.49018             0        82     sta1171n3750e         0         0         0         1           sdc        81           tot       1.00000  
      83  cha83                   83      28.62000      11.64481      37.48808             0        83     sta1171n3750e         0         0         0         1           sdc        81           tot       1.00000  
      84  cha84                   84      13.95000      11.64612      37.49299             0        84     sta1171n3750e         0         0         0         1           sdc        82           tot       1.00000  
      85  cha85                   85      29.97000      11.64665      37.47573             0        85     sta1171n3750e         0         0         0         1           sdc        58           tot       1.00000  
      86  cha86                   86      28.08000      11.64620      37.47923             0        86     sta1171n3750e         0         0         0         1           sdc        58           tot       1.00000  
      87  cha87                   87      22.23000      11.64814      37.49493             0        87     sta1171n3750e         0         0         0         1           sdc        82           tot       1.00000  
      88  cha88                   88      27.18000      11.64919      37.48281             0        88     sta1171n3750e         0         0         0         1           sdc        57           tot       1.00000  
      89  cha89                   89      12.78000      11.64980      37.47178             0        89     sta1171n3750e         0         0         0         1           sdc        62           tot       1.00000  
      90  cha90                   90      28.89000      11.65083      37.49399             0        90     sta1171n3750e         0         0         0         1           sdc        80           tot       1.00000  
      91  cha91                   91      11.07000      11.65225      37.47195             0        91     sta1171n3750e         0         0         0         1           sdc        62           tot       1.00000  
