field.fld: written by SWAT+ editor v1.2.3 on 2020-07-08 09:06
name                       len            wd           ang  
fld010               500.00000     100.00000      30.00000  
fld020               500.00000     100.00000      30.00000  
fld030               500.00000     100.00000      30.00000  
fld040               500.00000     100.00000      30.00000  
fld050               500.00000     100.00000      30.00000  
fld060               500.00000     100.00000      30.00000  
fld070               500.00000     100.00000      30.00000  
fld080               500.00000     100.00000      30.00000  
fld090               500.00000     100.00000      30.00000  
fld100               500.00000     100.00000      30.00000  
fld110               500.00000     100.00000      30.00000  
fld120               500.00000     100.00000      30.00000  
fld130               500.00000     100.00000      30.00000  
fld140               500.00000     100.00000      30.00000  
fld150               500.00000     100.00000      30.00000  
fld160               500.00000     100.00000      30.00000  
fld170               500.00000     100.00000      30.00000  
fld180               500.00000     100.00000      30.00000  
fld190               500.00000     100.00000      30.00000  
fld200               500.00000     100.00000      30.00000  
fld210               500.00000     100.00000      30.00000  
fld220               500.00000     100.00000      30.00000  
fld230               500.00000     100.00000      30.00000  
fld240               500.00000     100.00000      30.00000  
fld250               500.00000     100.00000      30.00000  
fld260               500.00000     100.00000      30.00000  
fld270               500.00000     100.00000      30.00000  
fld280               500.00000     100.00000      30.00000  
fld290               500.00000     100.00000      30.00000  
fld300               500.00000     100.00000      30.00000  
fld310               500.00000     100.00000      30.00000  
fld320               500.00000     100.00000      30.00000  
fld330               500.00000     100.00000      30.00000  
fld340               500.00000     100.00000      30.00000  
fld350               500.00000     100.00000      30.00000  
fld360               500.00000     100.00000      30.00000  
fld370               500.00000     100.00000      30.00000  
fld380               500.00000     100.00000      30.00000  
fld390               500.00000     100.00000      30.00000  
fld400               500.00000     100.00000      30.00000  
fld410               500.00000     100.00000      30.00000  
fld420               500.00000     100.00000      30.00000  
fld430               500.00000     100.00000      30.00000  
fld440               500.00000     100.00000      30.00000  
fld450               500.00000     100.00000      30.00000  
fld460               500.00000     100.00000      30.00000  
fld470               500.00000     100.00000      30.00000  
fld480               500.00000     100.00000      30.00000  
fld490               500.00000     100.00000      30.00000  
fld500               500.00000     100.00000      30.00000  
fld510               500.00000     100.00000      30.00000  
fld520               500.00000     100.00000      30.00000  
fld530               500.00000     100.00000      30.00000  
fld540               500.00000     100.00000      30.00000  
fld550               500.00000     100.00000      30.00000  
fld560               500.00000     100.00000      30.00000  
fld570               500.00000     100.00000      30.00000  
fld580               500.00000     100.00000      30.00000  
fld590               500.00000     100.00000      30.00000  
fld600               500.00000     100.00000      30.00000  
fld610               500.00000     100.00000      30.00000  
fld620               500.00000     100.00000      30.00000  
fld630               500.00000     100.00000      30.00000  
fld640               500.00000     100.00000      30.00000  
fld650               500.00000     100.00000      30.00000  
fld660               500.00000     100.00000      30.00000  
fld670               500.00000     100.00000      30.00000  
fld680               500.00000     100.00000      30.00000  
fld690               500.00000     100.00000      30.00000  
fld700               500.00000     100.00000      30.00000  
fld710               500.00000     100.00000      30.00000  
fld720               500.00000     100.00000      30.00000  
fld730               500.00000     100.00000      30.00000  
fld740               500.00000     100.00000      30.00000  
fld750               500.00000     100.00000      30.00000  
fld760               500.00000     100.00000      30.00000  
fld770               500.00000     100.00000      30.00000  
fld780               500.00000     100.00000      30.00000  
fld790               500.00000     100.00000      30.00000  
fld800               500.00000     100.00000      30.00000  
fld810               500.00000     100.00000      30.00000  
fld820               500.00000     100.00000      30.00000  
fld830               500.00000     100.00000      30.00000  
fld840               500.00000     100.00000      30.00000  
fld850               500.00000     100.00000      30.00000  
fld860               500.00000     100.00000      30.00000  
fld870               500.00000     100.00000      30.00000  
fld880               500.00000     100.00000      30.00000  
fld890               500.00000     100.00000      30.00000  
fld900               500.00000     100.00000      30.00000  
fld910               500.00000     100.00000      30.00000  
