fire.ops: written by SWAT+ editor v1.2.3 on 2020-07-08 09:06
name                   chg_cn2     frac_burn  description
grass                  8.00000       1.00000  
tree_intense           8.00000       0.90000  
tree_low               6.00000       0.70000  
