hmd.cli: Relative humidity file names - file written by SWAT+ editor 2020-05-31 10:37:01.000638
filename
robrhum.hmd
