hru.con: written by SWAT+ editor v1.2.3 on 2020-07-08 09:05
      id  name                gis_id          area           lat           lon          elev       hru               wst       cst      ovfl      rule   out_tot  
       1  hru01                    1      45.00000      11.68176      37.44587    1833.95000         1     sta1171n3750e         0         0         0         0  
       2  hru02                    2      17.91000      11.68083      37.45208    1843.97990         2     sta1171n3750e         0         0         0         0  
       3  hru03                    3      14.22000      11.68130      37.45536    1841.50633         3     sta1171n3750e         0         0         0         0  
       4  hru04                    4      17.91000      11.67962      37.44779    1841.26633         4     sta1171n3750e         0         0         0         0  
       5  hru05                    5      34.74000      11.67801      37.45740    1844.08031         5     sta1171n3750e         0         0         0         0  
       6  hru06                    6       2.43000      11.67870      37.45310    1829.92593         6     sta1171n3750e         0         0         0         0  
       7  hru07                    7      50.58000      11.67545      37.44835    1821.69217         7     sta1171n3750e         0         0         0         0  
       8  hru08                    8      16.02000      11.67623      37.44386    1811.66292         8     sta1171n3750e         0         0         0         0  
       9  hru09                    9       5.58000      11.67666      37.45991    1848.67742         9     sta1171n3750e         0         0         0         0  
      10  hru10                   10      18.45000      11.67393      37.45800    1857.96585        10     sta1171n3750e         0         0         0         0  
      11  hru11                   11       8.37000      11.67258      37.44018    1801.46237        11     sta1171n3750e         0         0         0         0  
      12  hru12                   12       8.01000      11.67597      37.46188    1853.79775        12     sta1171n3750e         0         0         0         0  
      13  hru13                   13      12.33000      11.67632      37.46624    1866.94161        13     sta1171n3750e         0         0         0         0  
      14  hru14                   14      14.31000      11.67448      37.46491    1860.77987        14     sta1171n3750e         0         0         0         0  
      15  hru15                   15      17.01000      11.67290      37.46808    1872.30159        15     sta1171n3750e         0         0         0         0  
      16  hru16                   16      10.71000      11.67292      37.47127    1885.90756        16     sta1171n3750e         0         0         0         0  
      17  hru17                   17      28.89000      11.66926      37.46770    1875.29907        17     sta1171n3750e         0         0         0         0  
      18  hru18                   18      17.64000      11.67115      37.47259    1888.28061        18     sta1171n3750e         0         0         0         0  
      19  hru19                   19      15.66000      11.67021      37.47761    1913.12069        19     sta1171n3750e         0         0         0         0  
      20  hru20                   20       4.59000      11.66870      37.47416    1890.70588        20     sta1171n3750e         0         0         0         0  
      21  hru21                   21       8.46000      11.66711      37.47210    1888.90426        21     sta1171n3750e         0         0         0         0  
      22  hru22                   22      15.75000      11.66812      37.47857    1923.80571        22     sta1171n3750e         0         0         0         0  
      23  hru23                   23       9.18000      11.66584      37.47067    1895.17647        23     sta1171n3750e         0         0         0         0  
      24  hru24                   24      10.26000      11.66650      37.47414    1893.51754        24     sta1171n3750e         0         0         0         0  
      25  hru25                   25      14.40000      11.66618      37.47972    1933.81875        25     sta1171n3750e         0         0         0         0  
      26  hru26                   26       5.67000      11.66513      37.47584    1899.80952        26     sta1171n3750e         0         0         0         0  
      27  hru27                   27      39.33000      11.66362      37.48245    1942.67735        27     sta1171n3750e         0         0         0         0  
      28  hru28                   28      16.65000      11.66254      37.47350    1912.32432        28     sta1171n3750e         0         0         0         0  
      29  hru29                   29       2.70000      11.66458      37.47778    1906.90000        29     sta1171n3750e         0         0         0         0  
      30  hru30                   30       0.90000      11.66384      37.47773    1902.60000        30     sta1171n3750e         0         0         0         0  
      31  hru31                   31      23.22000      11.65920      37.47525    1936.76744        31     sta1171n3750e         0         0         0         0  
      32  hru32                   32      36.81000      11.65952      37.47873    1929.63570        32     sta1171n3750e         0         0         0         0  
      33  hru33                   33      12.06000      11.65985      37.48590    1955.46269        33     sta1171n3750e         0         0         0         0  
      34  hru34                   34       7.83000      11.65842      37.48276    1933.20690        34     sta1171n3750e         0         0         0         0  
      35  hru35                   35      16.74000      11.65634      37.48039    1936.03226        35     sta1171n3750e         0         0         0         0  
      36  hru36                   36      21.33000      11.65673      37.48713    1969.56540        36     sta1171n3750e         0         0         0         0  
      37  hru37                   37      23.67000      11.67332      37.45424    1848.00760        37     sta1171n3750e         0         0         0         0  
      38  hru38                   38      15.84000      11.67199      37.44442    1806.85795        38     sta1171n3750e         0         0         0         0  
      39  hru39                   39       9.90000      11.67191      37.44964    1824.04545        39     sta1171n3750e         0         0         0         0  
      40  hru40                   40      14.49000      11.67082      37.45417    1853.49068        40     sta1171n3750e         0         0         0         0  
      41  hru41                   41       0.27000      11.67092      37.43921    1799.00000        41     sta1171n3750e         0         0         0         0  
      42  hru42                   42      13.32000      11.66973      37.44319    1804.58108        42     sta1171n3750e         0         0         0         0  
      43  hru43                   43       5.94000      11.66993      37.44679    1820.45455        43     sta1171n3750e         0         0         0         0  
      44  hru44                   44       1.89000      11.67036      37.43972    1799.19048        44     sta1171n3750e         0         0         0         0  
      45  hru45                   45      13.14000      11.66964      37.45139    1849.93836        45     sta1171n3750e         0         0         0         0  
      46  hru46                   46      13.68000      11.66745      37.44244    1806.89474        46     sta1171n3750e         0         0         0         0  
      47  hru47                   47      14.67000      11.66762      37.44673    1821.25153        47     sta1171n3750e         0         0         0         0  
      48  hru48                   48      14.22000      11.66735      37.45033    1838.86709        48     sta1171n3750e         0         0         0         0  
      49  hru49                   49      18.27000      11.66754      37.45616    1865.92611        49     sta1171n3750e         0         0         0         0  
      50  hru50                   50      29.88000      11.66440      37.45131    1841.39157        50     sta1171n3750e         0         0         0         0  
      51  hru51                   51      11.70000      11.66608      37.45817    1874.65385        51     sta1171n3750e         0         0         0         0  
      52  hru52                   52      44.82000      11.66181      37.46124    1888.16667        52     sta1171n3750e         0         0         0         0  
      53  hru53                   53       6.66000      11.66434      37.45437    1840.44595        53     sta1171n3750e         0         0         0         0  
      54  hru54                   54       6.84000      11.66306      37.45612    1848.84211        54     sta1171n3750e         0         0         0         0  
      55  hru55                   55       2.61000      11.66230      37.45373    1842.82759        55     sta1171n3750e         0         0         0         0  
      56  hru56                   56      13.41000      11.66031      37.45476    1869.23490        56     sta1171n3750e         0         0         0         0  
      57  hru57                   57      40.05000      11.65742      37.45936    1908.34607        57     sta1171n3750e         0         0         0         0  
      58  hru58                   58      19.80000      11.65553      37.45513    1909.70000        58     sta1171n3750e         0         0         0         0  
      59  hru59                   59       9.00000      11.65764      37.45664    1895.87000        59     sta1171n3750e         0         0         0         0  
      60  hru60                   60       0.63000      11.67523      37.46008    1848.14286        60     sta1171n3750e         0         0         0         0  
      61  hru61                   61      54.63000      11.66867      37.46314    1874.90445        61     sta1171n3750e         0         0         0         0  
      62  hru62                   62      14.04000      11.67092      37.45983    1872.15385        62     sta1171n3750e         0         0         0         0  
      63  hru63                   63      30.60000      11.66288      37.46933    1902.00000        63     sta1171n3750e         0         0         0         0  
      64  hru64                   64       9.90000      11.66305      37.46516    1889.70909        64     sta1171n3750e         0         0         0         0  
      65  hru65                   65       9.27000      11.65998      37.46979    1912.42718        65     sta1171n3750e         0         0         0         0  
      66  hru66                   66       1.62000      11.66129      37.46583    1895.00000        66     sta1171n3750e         0         0         0         0  
      67  hru67                   67       5.49000      11.65989      37.46562    1901.73770        67     sta1171n3750e         0         0         0         0  
      68  hru68                   68      32.04000      11.65661      37.47138    1943.24438        68     sta1171n3750e         0         0         0         0  
      69  hru69                   69       9.27000      11.65660      37.46886    1931.05825        69     sta1171n3750e         0         0         0         0  
      70  hru70                   70      50.85000      11.65418      37.46687    1934.31858        70     sta1171n3750e         0         0         0         0  
      71  hru71                   71      11.07000      11.65225      37.47195    1970.95935        71     sta1171n3750e         0         0         0         0  
      72  hru72                   72      12.78000      11.64980      37.47178    1975.00000        72     sta1171n3750e         0         0         0         0  
      73  hru73                   73      21.06000      11.66916      37.43784    1798.91453        73     sta1171n3750e         0         0         0         0  
      74  hru74                   74       8.91000      11.66653      37.43873    1800.57576        74     sta1171n3750e         0         0         0         0  
      75  hru75                   75      25.56000      11.66297      37.43228    1793.99648        75     sta1171n3750e         0         0         0         0  
      76  hru76                   76     101.79000      11.66122      37.44436    1841.77542        76     sta1171n3750e         0         0         0         0  
      77  hru77                   77      11.52000      11.65476      37.45268    1898.45312        77     sta1171n3750e         0         0         0         0  
      78  hru78                   78       8.91000      11.65408      37.45035    1890.37374        78     sta1171n3750e         0         0         0         0  
      79  hru79                   79       9.00000      11.66010      37.42752    1790.94000        79     sta1171n3750e         0         0         0         0  
      80  hru80                   80      10.53000      11.65454      37.48273    1938.67521        80     sta1171n3750e         0         0         0         0  
      81  hru81                   81      63.36000      11.65114      37.48702    1970.57528        81     sta1171n3750e         0         0         0         0  
      82  hru82                   82      27.18000      11.64919      37.48281    1968.26821        82     sta1171n3750e         0         0         0         0  
      83  hru83                   83      28.89000      11.65083      37.49399    1999.66978        83     sta1171n3750e         0         0         0         0  
      84  hru84                   84      22.23000      11.64814      37.49493    2008.90283        84     sta1171n3750e         0         0         0         0  
      85  hru85                   85       1.17000      11.64827      37.48938    1961.30769        85     sta1171n3750e         0         0         0         0  
      86  hru86                   86      28.62000      11.64481      37.48808    1986.80503        86     sta1171n3750e         0         0         0         0  
      87  hru87                   87       1.62000      11.64755      37.49018    1971.88889        87     sta1171n3750e         0         0         0         0  
      88  hru88                   88      13.95000      11.64612      37.49299    2005.66452        88     sta1171n3750e         0         0         0         0  
      89  hru89                   89      45.00000      11.65198      37.47820    1963.53600        89     sta1171n3750e         0         0         0         0  
      90  hru90                   90      29.97000      11.64665      37.47573    1984.42943        90     sta1171n3750e         0         0         0         0  
      91  hru91                   91      28.08000      11.64620      37.47923    1983.08974        91     sta1171n3750e         0         0         0         0  
