hyd-sed-lte.cha: written by SWAT+ editor v1.2.3 on 2020-07-08 09:06
name                         order            wd            dp           slp           len          mann             k     erod_fact      cov_fact        hc_cov        eq_slp           d50          clay        carbon        dry_bd      side_slp      bed_load        t_conc     shear_bnk       hc_erod         hc_ht        hc_len  description
hydcha01                     first       5.30969       0.33388       0.00001       1.64820       0.05000       1.00000       0.01000       0.00500       0.00000       0.00100      12.00000      50.00000       0.04000       1.00000       0.50000       0.50000      10.00000       0.75000       0.10000       0.30000       0.30000  
hydcha02                     first       5.04882       0.32286       0.00001       0.63210       0.05000       1.00000       0.01000       0.00500       0.00000       0.00100      12.00000      50.00000       0.04000       1.00000       0.50000       0.50000      10.00000       0.75000       0.10000       0.30000       0.30000  
hydcha03                     first       4.88118       0.31567       0.03080       0.25970       0.05000       1.00000       0.01000       0.00500       0.00000       0.00100      12.00000      50.00000       0.04000       1.00000       0.50000       0.50000      10.00000       0.75000       0.10000       0.30000       0.30000  
hydcha04                     first       4.04240       0.27838       0.01691       0.35490       0.05000       1.00000       0.01000       0.00500       0.00000       0.00100      12.00000      50.00000       0.04000       1.00000       0.50000       0.50000      10.00000       0.75000       0.10000       0.30000       0.30000  
hydcha05                     first       3.96843       0.27498       0.01048       0.47700       0.05000       1.00000       0.01000       0.00500       0.00000       0.00100      12.00000      50.00000       0.04000       1.00000       0.50000       0.50000      10.00000       0.75000       0.10000       0.30000       0.30000  
hydcha06                     first       3.74589       0.26460       0.02082       1.00880       0.05000       1.00000       0.01000       0.00500       0.00000       0.00100      12.00000      50.00000       0.04000       1.00000       0.50000       0.50000      10.00000       0.75000       0.10000       0.30000       0.30000  
hydcha07                     first       2.19323       0.18519       0.00001       0.07240       0.05000       1.00000       0.01000       0.00500       0.00000       0.00100      12.00000      50.00000       0.04000       1.00000       0.50000       0.50000      10.00000       0.75000       0.10000       0.30000       0.30000  
hydcha08                     first       2.11252       0.18061       0.02521       1.38850       0.05000       1.00000       0.01000       0.00500       0.00000       0.00100      12.00000      50.00000       0.04000       1.00000       0.50000       0.50000      10.00000       0.75000       0.10000       0.30000       0.30000  
hydcha09                     first       0.80277       0.09476       0.02325       0.60210       0.05000       1.00000       0.01000       0.00500       0.00000       0.00100      12.00000      50.00000       0.04000       1.00000       0.50000       0.50000      10.00000       0.75000       0.10000       0.30000       0.30000  
hydcha10                     first       1.11927       0.11826       0.00001       0.47180       0.05000       1.00000       0.01000       0.00500       0.00000       0.00100      12.00000      50.00000       0.04000       1.00000       0.50000       0.50000      10.00000       0.75000       0.10000       0.30000       0.30000  
hydcha11                     first       0.68192       0.08499       0.00001       0.15730       0.05000       1.00000       0.01000       0.00500       0.00000       0.00100      12.00000      50.00000       0.04000       1.00000       0.50000       0.50000      10.00000       0.75000       0.10000       0.30000       0.30000  
hydcha12                     first       0.40479       0.06003       0.14896       0.30210       0.05000       1.00000       0.01000       0.00500       0.00000       0.00100      12.00000      50.00000       0.04000       1.00000       0.50000       0.50000      10.00000       0.75000       0.10000       0.30000       0.30000  
hydcha13                     first       0.79895       0.09446       0.05416       0.84940       0.05000       1.00000       0.01000       0.00500       0.00000       0.00100      12.00000      50.00000       0.04000       1.00000       0.50000       0.50000      10.00000       0.75000       0.10000       0.30000       0.30000  
hydcha14                     first       0.40025       0.05958       0.00001       0.28970       0.05000       1.00000       0.01000       0.00500       0.00000       0.00100      12.00000      50.00000       0.04000       1.00000       0.50000       0.50000      10.00000       0.75000       0.10000       0.30000       0.30000  
hydcha15                     first       0.39720       0.05928       0.18108       0.39210       0.05000       1.00000       0.01000       0.00500       0.00000       0.00100      12.00000      50.00000       0.04000       1.00000       0.50000       0.50000      10.00000       0.75000       0.10000       0.30000       0.30000  
hydcha16                     first       0.54339       0.07305       0.01007       0.39730       0.05000       1.00000       0.01000       0.00500       0.00000       0.00100      12.00000      50.00000       0.04000       1.00000       0.50000       0.50000      10.00000       0.75000       0.10000       0.30000       0.30000  
hydcha17                     first       0.36742       0.05628       0.34000       0.15000       0.05000       1.00000       0.01000       0.00500       0.00000       0.00100      12.00000      50.00000       0.04000       1.00000       0.50000       0.50000      10.00000       0.75000       0.10000       0.30000       0.30000  
hydcha18                     first       0.46794       0.06612       0.83333       0.06000       0.05000       1.00000       0.01000       0.00500       0.00000       0.00100      12.00000      50.00000       0.04000       1.00000       0.50000       0.50000      10.00000       0.75000       0.10000       0.30000       0.30000  
hydcha19                     first       0.45967       0.06534       0.09292       0.48430       0.05000       1.00000       0.01000       0.00500       0.00000       0.00100      12.00000      50.00000       0.04000       1.00000       0.50000       0.50000      10.00000       0.75000       0.10000       0.30000       0.30000  
hydcha20                     first       0.45967       0.06534       0.25157       0.17490       0.05000       1.00000       0.01000       0.00500       0.00000       0.00100      12.00000      50.00000       0.04000       1.00000       0.50000       0.50000      10.00000       0.75000       0.10000       0.30000       0.30000  
hydcha21                     first       6.57509       0.38502       0.00001       0.77180       0.05000       1.00000       0.01000       0.00500       0.00000       0.00100      12.00000      50.00000       0.04000       1.00000       0.50000       0.50000      10.00000       0.75000       0.10000       0.30000       0.30000  
hydcha22                     first       5.56859       0.34465       0.00001       0.48430       0.05000       1.00000       0.01000       0.00500       0.00000       0.00100      12.00000      50.00000       0.04000       1.00000       0.50000       0.50000      10.00000       0.75000       0.10000       0.30000       0.30000  
hydcha23                     first       3.59920       0.25764       0.00851       0.23490       0.05000       1.00000       0.01000       0.00500       0.00000       0.00100      12.00000      50.00000       0.04000       1.00000       0.50000       0.50000      10.00000       0.75000       0.10000       0.30000       0.30000  
hydcha24                     first       3.42266       0.24915       0.03060       0.39210       0.05000       1.00000       0.01000       0.00500       0.00000       0.00100      12.00000      50.00000       0.04000       1.00000       0.50000       0.50000      10.00000       0.75000       0.10000       0.30000       0.30000  
hydcha25                     first       2.70756       0.21311       0.00001       0.06000       0.05000       1.00000       0.01000       0.00500       0.00000       0.00100      12.00000      50.00000       0.04000       1.00000       0.50000       0.50000      10.00000       0.75000       0.10000       0.30000       0.30000  
hydcha26                     first       3.31281       0.24379       0.01838       0.27210       0.05000       1.00000       0.01000       0.00500       0.00000       0.00100      12.00000      50.00000       0.04000       1.00000       0.50000       0.50000      10.00000       0.75000       0.10000       0.30000       0.30000  
hydcha27                     first       3.22927       0.23967       0.00870       0.11490       0.05000       1.00000       0.01000       0.00500       0.00000       0.00100      12.00000      50.00000       0.04000       1.00000       0.50000       0.50000      10.00000       0.75000       0.10000       0.30000       0.30000  
hydcha28                     first       3.11919       0.23420       0.01381       0.07240       0.05000       1.00000       0.01000       0.00500       0.00000       0.00100      12.00000      50.00000       0.04000       1.00000       0.50000       0.50000      10.00000       0.75000       0.10000       0.30000       0.30000  
hydcha29                     first       0.42701       0.06221       0.02513       0.59700       0.05000       1.00000       0.01000       0.00500       0.00000       0.00100      12.00000      50.00000       0.04000       1.00000       0.50000       0.50000      10.00000       0.75000       0.10000       0.30000       0.30000  
hydcha30                     first       2.63077       0.20906       0.00001       0.11490       0.05000       1.00000       0.01000       0.00500       0.00000       0.00100      12.00000      50.00000       0.04000       1.00000       0.50000       0.50000      10.00000       0.75000       0.10000       0.30000       0.30000  
hydcha31                     first       2.55510       0.20503       0.00001       0.54210       0.05000       1.00000       0.01000       0.00500       0.00000       0.00100      12.00000      50.00000       0.04000       1.00000       0.50000       0.50000      10.00000       0.75000       0.10000       0.30000       0.30000  
hydcha32                     first       2.13700       0.18201       0.00001       0.57430       0.05000       1.00000       0.01000       0.00500       0.00000       0.00100      12.00000      50.00000       0.04000       1.00000       0.50000       0.50000      10.00000       0.75000       0.10000       0.30000       0.30000  
hydcha33                     first       1.01573       0.11085       0.00001       0.36730       0.05000       1.00000       0.01000       0.00500       0.00000       0.00100      12.00000      50.00000       0.04000       1.00000       0.50000       0.50000      10.00000       0.75000       0.10000       0.30000       0.30000  
hydcha34                     first       1.59402       0.14970       0.01452       0.48210       0.05000       1.00000       0.01000       0.00500       0.00000       0.00100      12.00000      50.00000       0.04000       1.00000       0.50000       0.50000      10.00000       0.75000       0.10000       0.30000       0.30000  
hydcha35                     first       1.97305       0.17257       0.05797       0.74180       0.05000       1.00000       0.01000       0.00500       0.00000       0.00100      12.00000      50.00000       0.04000       1.00000       0.50000       0.50000      10.00000       0.75000       0.10000       0.30000       0.30000  
hydcha36                     first       0.83111       0.09697       0.00001       0.47180       0.05000       1.00000       0.01000       0.00500       0.00000       0.00100      12.00000      50.00000       0.04000       1.00000       0.50000       0.50000      10.00000       0.75000       0.10000       0.30000       0.30000  
hydcha37                     first       0.53716       0.07249       0.14303       0.48940       0.05000       1.00000       0.01000       0.00500       0.00000       0.00100      12.00000      50.00000       0.04000       1.00000       0.50000       0.50000      10.00000       0.75000       0.10000       0.30000       0.30000  
hydcha38                     first       0.63390       0.08095       0.13346       0.43460       0.05000       1.00000       0.01000       0.00500       0.00000       0.00100      12.00000      50.00000       0.04000       1.00000       0.50000       0.50000      10.00000       0.75000       0.10000       0.30000       0.30000  
hydcha39                     first       0.33765       0.05319       0.02761       0.14490       0.05000       1.00000       0.01000       0.00500       0.00000       0.00100      12.00000      50.00000       0.04000       1.00000       0.50000       0.50000      10.00000       0.75000       0.10000       0.30000       0.30000  
hydcha40                     first       0.69883       0.08639       0.04487       0.28970       0.05000       1.00000       0.01000       0.00500       0.00000       0.00100      12.00000      50.00000       0.04000       1.00000       0.50000       0.50000      10.00000       0.75000       0.10000       0.30000       0.30000  
hydcha41                     first       0.43999       0.06346       0.24262       0.24730       0.05000       1.00000       0.01000       0.00500       0.00000       0.00100      12.00000      50.00000       0.04000       1.00000       0.50000       0.50000      10.00000       0.75000       0.10000       0.30000       0.30000  
hydcha42                     first       0.35604       0.05511       0.06901       0.14490       0.05000       1.00000       0.01000       0.00500       0.00000       0.00100      12.00000      50.00000       0.04000       1.00000       0.50000       0.50000      10.00000       0.75000       0.10000       0.30000       0.30000  
hydcha43                     first       0.40328       0.05988       0.06470       0.24730       0.05000       1.00000       0.01000       0.00500       0.00000       0.00100      12.00000      50.00000       0.04000       1.00000       0.50000       0.50000      10.00000       0.75000       0.10000       0.30000       0.30000  
hydcha44                     first       0.30235       0.04942       0.20000       0.03000       0.05000       1.00000       0.01000       0.00500       0.00000       0.00100      12.00000      50.00000       0.04000       1.00000       0.50000       0.50000      10.00000       0.75000       0.10000       0.30000       0.30000  
hydcha45                     first       0.40025       0.05958       0.25833       0.12000       0.05000       1.00000       0.01000       0.00500       0.00000       0.00100      12.00000      50.00000       0.04000       1.00000       0.50000       0.50000      10.00000       0.75000       0.10000       0.30000       0.30000  
hydcha46                     first       0.46519       0.06586       0.05857       0.30730       0.05000       1.00000       0.01000       0.00500       0.00000       0.00100      12.00000      50.00000       0.04000       1.00000       0.50000       0.50000      10.00000       0.75000       0.10000       0.30000       0.30000  
hydcha47                     first       0.30782       0.05001       0.83333       0.06000       0.05000       1.00000       0.01000       0.00500       0.00000       0.00100      12.00000      50.00000       0.04000       1.00000       0.50000       0.50000      10.00000       0.75000       0.10000       0.30000       0.30000  
hydcha48                     first       0.39106       0.05866       0.03590       0.36210       0.05000       1.00000       0.01000       0.00500       0.00000       0.00100      12.00000      50.00000       0.04000       1.00000       0.50000       0.50000      10.00000       0.75000       0.10000       0.30000       0.30000  
hydcha49                     first       0.42556       0.06207       0.20948       0.27210       0.05000       1.00000       0.01000       0.00500       0.00000       0.00100      12.00000      50.00000       0.04000       1.00000       0.50000       0.50000      10.00000       0.75000       0.10000       0.30000       0.30000  
hydcha50                     first       0.42410       0.06192       0.03381       0.35490       0.05000       1.00000       0.01000       0.00500       0.00000       0.00100      12.00000      50.00000       0.04000       1.00000       0.50000       0.50000      10.00000       0.75000       0.10000       0.30000       0.30000  
hydcha51                     first       0.38172       0.05773       0.01082       0.27730       0.05000       1.00000       0.01000       0.00500       0.00000       0.00100      12.00000      50.00000       0.04000       1.00000       0.50000       0.50000      10.00000       0.75000       0.10000       0.30000       0.30000  
hydcha52                     first       0.45550       0.06494       0.17729       0.34970       0.05000       1.00000       0.01000       0.00500       0.00000       0.00100      12.00000      50.00000       0.04000       1.00000       0.50000       0.50000      10.00000       0.75000       0.10000       0.30000       0.30000  
hydcha53                     first       6.99815       0.40136       0.00001       0.30730       0.05000       1.00000       0.01000       0.00500       0.00000       0.00100      12.00000      50.00000       0.04000       1.00000       0.50000       0.50000      10.00000       0.75000       0.10000       0.30000       0.30000  
hydcha54                     first       6.66476       0.38851       0.00001       1.17340       0.05000       1.00000       0.01000       0.00500       0.00000       0.00100      12.00000      50.00000       0.04000       1.00000       0.50000       0.50000      10.00000       0.75000       0.10000       0.30000       0.30000  
hydcha55                     first       2.94301       0.22529       0.02608       0.65180       0.05000       1.00000       0.01000       0.00500       0.00000       0.00100      12.00000      50.00000       0.04000       1.00000       0.50000       0.50000      10.00000       0.75000       0.10000       0.30000       0.30000  
hydcha56                     first       2.57932       0.20633       0.01819       0.38490       0.05000       1.00000       0.01000       0.00500       0.00000       0.00100      12.00000      50.00000       0.04000       1.00000       0.50000       0.50000      10.00000       0.75000       0.10000       0.30000       0.30000  
hydcha57                     first       1.94087       0.17069       0.01986       0.30210       0.05000       1.00000       0.01000       0.00500       0.00000       0.00100      12.00000      50.00000       0.04000       1.00000       0.50000       0.50000      10.00000       0.75000       0.10000       0.30000       0.30000  
hydcha58                     first       1.31347       0.13157       0.03456       0.83910       0.05000       1.00000       0.01000       0.00500       0.00000       0.00100      12.00000      50.00000       0.04000       1.00000       0.50000       0.50000      10.00000       0.75000       0.10000       0.30000       0.30000  
hydcha59                     first       1.45504       0.14086       0.00735       3.81160       0.05000       1.00000       0.01000       0.00500       0.00000       0.00100      12.00000      50.00000       0.04000       1.00000       0.50000       0.50000      10.00000       0.75000       0.10000       0.30000       0.30000  
hydcha60                     first       1.46146       0.14128       0.02222       0.09000       0.05000       1.00000       0.01000       0.00500       0.00000       0.00100      12.00000      50.00000       0.04000       1.00000       0.50000       0.50000      10.00000       0.75000       0.10000       0.30000       0.30000  
hydcha61                     first       1.20661       0.12434       0.02648       0.30210       0.05000       1.00000       0.01000       0.00500       0.00000       0.00100      12.00000      50.00000       0.04000       1.00000       0.50000       0.50000      10.00000       0.75000       0.10000       0.30000       0.30000  
hydcha62                     first       1.08288       0.11568       0.03937       1.06670       0.05000       1.00000       0.01000       0.00500       0.00000       0.00100      12.00000      50.00000       0.04000       1.00000       0.50000       0.50000      10.00000       0.75000       0.10000       0.30000       0.30000  
hydcha63                     first       0.70614       0.08699       0.02164       0.27730       0.05000       1.00000       0.01000       0.00500       0.00000       0.00100      12.00000      50.00000       0.04000       1.00000       0.50000       0.50000      10.00000       0.75000       0.10000       0.30000       0.30000  
hydcha64                     first       0.73693       0.08950       0.05218       0.88150       0.05000       1.00000       0.01000       0.00500       0.00000       0.00100      12.00000      50.00000       0.04000       1.00000       0.50000       0.50000      10.00000       0.75000       0.10000       0.30000       0.30000  
hydcha65                     first       1.55499       0.14724       0.00001       0.13240       0.05000       1.00000       0.01000       0.00500       0.00000       0.00100      12.00000      50.00000       0.04000       1.00000       0.50000       0.50000      10.00000       0.75000       0.10000       0.30000       0.30000  
hydcha66                     first       1.22473       0.12558       0.04408       0.29490       0.05000       1.00000       0.01000       0.00500       0.00000       0.00100      12.00000      50.00000       0.04000       1.00000       0.50000       0.50000      10.00000       0.75000       0.10000       0.30000       0.30000  
hydcha67                     first       0.76885       0.09207       0.07567       0.40970       0.05000       1.00000       0.01000       0.00500       0.00000       0.00100      12.00000      50.00000       0.04000       1.00000       0.50000       0.50000      10.00000       0.75000       0.10000       0.30000       0.30000  
hydcha68                     first       0.75797       0.09120       0.04094       0.43970       0.05000       1.00000       0.01000       0.00500       0.00000       0.00100      12.00000      50.00000       0.04000       1.00000       0.50000       0.50000      10.00000       0.75000       0.10000       0.30000       0.30000  
hydcha69                     first       0.48819       0.06802       0.06268       0.49460       0.05000       1.00000       0.01000       0.00500       0.00000       0.00100      12.00000      50.00000       0.04000       1.00000       0.50000       0.50000      10.00000       0.75000       0.10000       0.30000       0.30000  
hydcha70                     first       0.35275       0.05477       0.05287       0.13240       0.05000       1.00000       0.01000       0.00500       0.00000       0.00100      12.00000      50.00000       0.04000       1.00000       0.50000       0.50000      10.00000       0.75000       0.10000       0.30000       0.30000  
hydcha71                     first       0.30235       0.04942       1.22642       0.04240       0.05000       1.00000       0.01000       0.00500       0.00000       0.00100      12.00000      50.00000       0.04000       1.00000       0.50000       0.50000      10.00000       0.75000       0.10000       0.30000       0.30000  
hydcha72                     first       0.65164       0.08246       0.10260       0.90640       0.05000       1.00000       0.01000       0.00500       0.00000       0.00100      12.00000      50.00000       0.04000       1.00000       0.50000       0.50000      10.00000       0.75000       0.10000       0.30000       0.30000  
hydcha73                     first       0.51049       0.07007       0.04482       0.35700       0.05000       1.00000       0.01000       0.00500       0.00000       0.00100      12.00000      50.00000       0.04000       1.00000       0.50000       0.50000      10.00000       0.75000       0.10000       0.30000       0.30000  
hydcha74                     first       0.74499       0.09015       0.06988       0.84430       0.05000       1.00000       0.01000       0.00500       0.00000       0.00100      12.00000      50.00000       0.04000       1.00000       0.50000       0.50000      10.00000       0.75000       0.10000       0.30000       0.30000  
hydcha75                     first       0.30963       0.05021       0.32999       0.16970       0.05000       1.00000       0.01000       0.00500       0.00000       0.00100      12.00000      50.00000       0.04000       1.00000       0.50000       0.50000      10.00000       0.75000       0.10000       0.30000       0.30000  
hydcha76                     first       0.36258       0.05578       0.04714       0.16970       0.05000       1.00000       0.01000       0.00500       0.00000       0.00100      12.00000      50.00000       0.04000       1.00000       0.50000       0.50000      10.00000       0.75000       0.10000       0.30000       0.30000  
hydcha77                     first       0.30418       0.04962       0.07075       0.04240       0.05000       1.00000       0.01000       0.00500       0.00000       0.00100      12.00000      50.00000       0.04000       1.00000       0.50000       0.50000      10.00000       0.75000       0.10000       0.30000       0.30000  
hydcha78                     first       0.30963       0.05021       0.62426       0.08490       0.05000       1.00000       0.01000       0.00500       0.00000       0.00100      12.00000      50.00000       0.04000       1.00000       0.50000       0.50000      10.00000       0.75000       0.10000       0.30000       0.30000  
hydcha79                     first       0.79703       0.09430       0.05175       0.65700       0.05000       1.00000       0.01000       0.00500       0.00000       0.00100      12.00000      50.00000       0.04000       1.00000       0.50000       0.50000      10.00000       0.75000       0.10000       0.30000       0.30000  
hydcha80                     first       1.70923       0.15683       0.03104       0.96640       0.05000       1.00000       0.01000       0.00500       0.00000       0.00100      12.00000      50.00000       0.04000       1.00000       0.50000       0.50000      10.00000       0.75000       0.10000       0.30000       0.30000  
hydcha81                     first       1.01981       0.11115       0.00001       0.10240       0.05000       1.00000       0.01000       0.00500       0.00000       0.00100      12.00000      50.00000       0.04000       1.00000       0.50000       0.50000      10.00000       0.75000       0.10000       0.30000       0.30000  
hydcha82                     first       0.71959       0.08809       0.07812       0.10240       0.05000       1.00000       0.01000       0.00500       0.00000       0.00100      12.00000      50.00000       0.04000       1.00000       0.50000       0.50000      10.00000       0.75000       0.10000       0.30000       0.30000  
hydcha83                     first       0.60896       0.07882       0.03687       0.37970       0.05000       1.00000       0.01000       0.00500       0.00000       0.00100      12.00000      50.00000       0.04000       1.00000       0.50000       0.50000      10.00000       0.75000       0.10000       0.30000       0.30000  
hydcha84                     first       0.39567       0.05913       0.09555       0.27210       0.05000       1.00000       0.01000       0.00500       0.00000       0.00100      12.00000      50.00000       0.04000       1.00000       0.50000       0.50000      10.00000       0.75000       0.10000       0.30000       0.30000  
hydcha85                     first       0.62604       0.08028       0.12261       0.55460       0.05000       1.00000       0.01000       0.00500       0.00000       0.00100      12.00000      50.00000       0.04000       1.00000       0.50000       0.50000      10.00000       0.75000       0.10000       0.30000       0.30000  
hydcha86                     first       0.60204       0.07822       0.04203       0.45210       0.05000       1.00000       0.01000       0.00500       0.00000       0.00100      12.00000      50.00000       0.04000       1.00000       0.50000       0.50000      10.00000       0.75000       0.10000       0.30000       0.30000  
hydcha87                     first       0.52330       0.07124       0.07277       0.63210       0.05000       1.00000       0.01000       0.00500       0.00000       0.00100      12.00000      50.00000       0.04000       1.00000       0.50000       0.50000      10.00000       0.75000       0.10000       0.30000       0.30000  
hydcha88                     first       0.59039       0.07720       0.05495       0.70970       0.05000       1.00000       0.01000       0.00500       0.00000       0.00100      12.00000      50.00000       0.04000       1.00000       0.50000       0.50000      10.00000       0.75000       0.10000       0.30000       0.30000  
hydcha89                     first       0.37541       0.05709       0.67138       0.08490       0.05000       1.00000       0.01000       0.00500       0.00000       0.00100      12.00000      50.00000       0.04000       1.00000       0.50000       0.50000      10.00000       0.75000       0.10000       0.30000       0.30000  