hydrology.hyd: written by SWAT+ editor v1.2.3 on 2020-07-08 09:06
name                 lat_ttime       lat_sed       can_max          esco          epco   orgn_enrich   orgp_enrich  evap_pothole       bio_mix         perco      lat_orgn      lat_orgp      harg_pet     cn_plntet  
hyd01                  0.00000       0.00000       1.00000       0.95000       1.00000       0.00000       0.00000       0.50000       0.20000       0.50000       0.00000       0.00000       0.00000       1.00000  
hyd02                  0.00000       0.00000       1.00000       0.95000       1.00000       0.00000       0.00000       0.50000       0.20000       0.50000       0.00000       0.00000       0.00000       1.00000  
hyd03                  0.00000       0.00000       1.00000       0.95000       1.00000       0.00000       0.00000       0.50000       0.20000       0.50000       0.00000       0.00000       0.00000       1.00000  
hyd04                  0.00000       0.00000       1.00000       0.95000       1.00000       0.00000       0.00000       0.50000       0.20000       0.50000       0.00000       0.00000       0.00000       1.00000  
hyd05                  0.00000       0.00000       1.00000       0.95000       1.00000       0.00000       0.00000       0.50000       0.20000       0.50000       0.00000       0.00000       0.00000       1.00000  
hyd06                  0.00000       0.00000       1.00000       0.95000       1.00000       0.00000       0.00000       0.50000       0.20000       0.50000       0.00000       0.00000       0.00000       1.00000  
hyd07                  0.00000       0.00000       1.00000       0.95000       1.00000       0.00000       0.00000       0.50000       0.20000       0.50000       0.00000       0.00000       0.00000       1.00000  
hyd08                  0.00000       0.00000       1.00000       0.95000       1.00000       0.00000       0.00000       0.50000       0.20000       0.50000       0.00000       0.00000       0.00000       1.00000  
hyd09                  0.00000       0.00000       1.00000       0.95000       1.00000       0.00000       0.00000       0.50000       0.20000       0.50000       0.00000       0.00000       0.00000       1.00000  
hyd10                  0.00000       0.00000       1.00000       0.95000       1.00000       0.00000       0.00000       0.50000       0.20000       0.50000       0.00000       0.00000       0.00000       1.00000  
hyd11                  0.00000       0.00000       1.00000       0.95000       1.00000       0.00000       0.00000       0.50000       0.20000       0.50000       0.00000       0.00000       0.00000       1.00000  
hyd12                  0.00000       0.00000       1.00000       0.95000       1.00000       0.00000       0.00000       0.50000       0.20000       0.50000       0.00000       0.00000       0.00000       1.00000  
hyd13                  0.00000       0.00000       1.00000       0.95000       1.00000       0.00000       0.00000       0.50000       0.20000       0.50000       0.00000       0.00000       0.00000       1.00000  
hyd14                  0.00000       0.00000       1.00000       0.95000       1.00000       0.00000       0.00000       0.50000       0.20000       0.50000       0.00000       0.00000       0.00000       1.00000  
hyd15                  0.00000       0.00000       1.00000       0.95000       1.00000       0.00000       0.00000       0.50000       0.20000       0.50000       0.00000       0.00000       0.00000       1.00000  
hyd16                  0.00000       0.00000       1.00000       0.95000       1.00000       0.00000       0.00000       0.50000       0.20000       0.50000       0.00000       0.00000       0.00000       1.00000  
hyd17                  0.00000       0.00000       1.00000       0.95000       1.00000       0.00000       0.00000       0.50000       0.20000       0.50000       0.00000       0.00000       0.00000       1.00000  
hyd18                  0.00000       0.00000       1.00000       0.95000       1.00000       0.00000       0.00000       0.50000       0.20000       0.50000       0.00000       0.00000       0.00000       1.00000  
hyd19                  0.00000       0.00000       1.00000       0.95000       1.00000       0.00000       0.00000       0.50000       0.20000       0.50000       0.00000       0.00000       0.00000       1.00000  
hyd20                  0.00000       0.00000       1.00000       0.95000       1.00000       0.00000       0.00000       0.50000       0.20000       0.50000       0.00000       0.00000       0.00000       1.00000  
hyd21                  0.00000       0.00000       1.00000       0.95000       1.00000       0.00000       0.00000       0.50000       0.20000       0.50000       0.00000       0.00000       0.00000       1.00000  
hyd22                  0.00000       0.00000       1.00000       0.95000       1.00000       0.00000       0.00000       0.50000       0.20000       0.50000       0.00000       0.00000       0.00000       1.00000  
hyd23                  0.00000       0.00000       1.00000       0.95000       1.00000       0.00000       0.00000       0.50000       0.20000       0.50000       0.00000       0.00000       0.00000       1.00000  
hyd24                  0.00000       0.00000       1.00000       0.95000       1.00000       0.00000       0.00000       0.50000       0.20000       0.50000       0.00000       0.00000       0.00000       1.00000  
hyd25                  0.00000       0.00000       1.00000       0.95000       1.00000       0.00000       0.00000       0.50000       0.20000       0.50000       0.00000       0.00000       0.00000       1.00000  
hyd26                  0.00000       0.00000       1.00000       0.95000       1.00000       0.00000       0.00000       0.50000       0.20000       0.50000       0.00000       0.00000       0.00000       1.00000  
hyd27                  0.00000       0.00000       1.00000       0.95000       1.00000       0.00000       0.00000       0.50000       0.20000       0.50000       0.00000       0.00000       0.00000       1.00000  
hyd28                  0.00000       0.00000       1.00000       0.95000       1.00000       0.00000       0.00000       0.50000       0.20000       0.50000       0.00000       0.00000       0.00000       1.00000  
hyd29                  0.00000       0.00000       1.00000       0.95000       1.00000       0.00000       0.00000       0.50000       0.20000       0.50000       0.00000       0.00000       0.00000       1.00000  
hyd30                  0.00000       0.00000       1.00000       0.95000       1.00000       0.00000       0.00000       0.50000       0.20000       0.50000       0.00000       0.00000       0.00000       1.00000  
hyd31                  0.00000       0.00000       1.00000       0.95000       1.00000       0.00000       0.00000       0.50000       0.20000       0.50000       0.00000       0.00000       0.00000       1.00000  
hyd32                  0.00000       0.00000       1.00000       0.95000       1.00000       0.00000       0.00000       0.50000       0.20000       0.50000       0.00000       0.00000       0.00000       1.00000  
hyd33                  0.00000       0.00000       1.00000       0.95000       1.00000       0.00000       0.00000       0.50000       0.20000       0.50000       0.00000       0.00000       0.00000       1.00000  
hyd34                  0.00000       0.00000       1.00000       0.95000       1.00000       0.00000       0.00000       0.50000       0.20000       0.50000       0.00000       0.00000       0.00000       1.00000  
hyd35                  0.00000       0.00000       1.00000       0.95000       1.00000       0.00000       0.00000       0.50000       0.20000       0.50000       0.00000       0.00000       0.00000       1.00000  
hyd36                  0.00000       0.00000       1.00000       0.95000       1.00000       0.00000       0.00000       0.50000       0.20000       0.50000       0.00000       0.00000       0.00000       1.00000  
hyd37                  0.00000       0.00000       1.00000       0.95000       1.00000       0.00000       0.00000       0.50000       0.20000       0.50000       0.00000       0.00000       0.00000       1.00000  
hyd38                  0.00000       0.00000       1.00000       0.95000       1.00000       0.00000       0.00000       0.50000       0.20000       0.50000       0.00000       0.00000       0.00000       1.00000  
hyd39                  0.00000       0.00000       1.00000       0.95000       1.00000       0.00000       0.00000       0.50000       0.20000       0.50000       0.00000       0.00000       0.00000       1.00000  
hyd40                  0.00000       0.00000       1.00000       0.95000       1.00000       0.00000       0.00000       0.50000       0.20000       0.50000       0.00000       0.00000       0.00000       1.00000  
hyd41                  0.00000       0.00000       1.00000       0.95000       1.00000       0.00000       0.00000       0.50000       0.20000       0.50000       0.00000       0.00000       0.00000       1.00000  
hyd42                  0.00000       0.00000       1.00000       0.95000       1.00000       0.00000       0.00000       0.50000       0.20000       0.50000       0.00000       0.00000       0.00000       1.00000  
hyd43                  0.00000       0.00000       1.00000       0.95000       1.00000       0.00000       0.00000       0.50000       0.20000       0.50000       0.00000       0.00000       0.00000       1.00000  
hyd44                  0.00000       0.00000       1.00000       0.95000       1.00000       0.00000       0.00000       0.50000       0.20000       0.50000       0.00000       0.00000       0.00000       1.00000  
hyd45                  0.00000       0.00000       1.00000       0.95000       1.00000       0.00000       0.00000       0.50000       0.20000       0.50000       0.00000       0.00000       0.00000       1.00000  
hyd46                  0.00000       0.00000       1.00000       0.95000       1.00000       0.00000       0.00000       0.50000       0.20000       0.50000       0.00000       0.00000       0.00000       1.00000  
hyd47                  0.00000       0.00000       1.00000       0.95000       1.00000       0.00000       0.00000       0.50000       0.20000       0.50000       0.00000       0.00000       0.00000       1.00000  
hyd48                  0.00000       0.00000       1.00000       0.95000       1.00000       0.00000       0.00000       0.50000       0.20000       0.50000       0.00000       0.00000       0.00000       1.00000  
hyd49                  0.00000       0.00000       1.00000       0.95000       1.00000       0.00000       0.00000       0.50000       0.20000       0.50000       0.00000       0.00000       0.00000       1.00000  
hyd50                  0.00000       0.00000       1.00000       0.95000       1.00000       0.00000       0.00000       0.50000       0.20000       0.50000       0.00000       0.00000       0.00000       1.00000  
hyd51                  0.00000       0.00000       1.00000       0.95000       1.00000       0.00000       0.00000       0.50000       0.20000       0.50000       0.00000       0.00000       0.00000       1.00000  
hyd52                  0.00000       0.00000       1.00000       0.95000       1.00000       0.00000       0.00000       0.50000       0.20000       0.50000       0.00000       0.00000       0.00000       1.00000  
hyd53                  0.00000       0.00000       1.00000       0.95000       1.00000       0.00000       0.00000       0.50000       0.20000       0.50000       0.00000       0.00000       0.00000       1.00000  
hyd54                  0.00000       0.00000       1.00000       0.95000       1.00000       0.00000       0.00000       0.50000       0.20000       0.50000       0.00000       0.00000       0.00000       1.00000  
hyd55                  0.00000       0.00000       1.00000       0.95000       1.00000       0.00000       0.00000       0.50000       0.20000       0.50000       0.00000       0.00000       0.00000       1.00000  
hyd56                  0.00000       0.00000       1.00000       0.95000       1.00000       0.00000       0.00000       0.50000       0.20000       0.50000       0.00000       0.00000       0.00000       1.00000  
hyd57                  0.00000       0.00000       1.00000       0.95000       1.00000       0.00000       0.00000       0.50000       0.20000       0.50000       0.00000       0.00000       0.00000       1.00000  
hyd58                  0.00000       0.00000       1.00000       0.95000       1.00000       0.00000       0.00000       0.50000       0.20000       0.50000       0.00000       0.00000       0.00000       1.00000  
hyd59                  0.00000       0.00000       1.00000       0.95000       1.00000       0.00000       0.00000       0.50000       0.20000       0.50000       0.00000       0.00000       0.00000       1.00000  
hyd60                  0.00000       0.00000       1.00000       0.95000       1.00000       0.00000       0.00000       0.50000       0.20000       0.50000       0.00000       0.00000       0.00000       1.00000  
hyd61                  0.00000       0.00000       1.00000       0.95000       1.00000       0.00000       0.00000       0.50000       0.20000       0.50000       0.00000       0.00000       0.00000       1.00000  
hyd62                  0.00000       0.00000       1.00000       0.95000       1.00000       0.00000       0.00000       0.50000       0.20000       0.50000       0.00000       0.00000       0.00000       1.00000  
hyd63                  0.00000       0.00000       1.00000       0.95000       1.00000       0.00000       0.00000       0.50000       0.20000       0.50000       0.00000       0.00000       0.00000       1.00000  
hyd64                  0.00000       0.00000       1.00000       0.95000       1.00000       0.00000       0.00000       0.50000       0.20000       0.50000       0.00000       0.00000       0.00000       1.00000  
hyd65                  0.00000       0.00000       1.00000       0.95000       1.00000       0.00000       0.00000       0.50000       0.20000       0.50000       0.00000       0.00000       0.00000       1.00000  
hyd66                  0.00000       0.00000       1.00000       0.95000       1.00000       0.00000       0.00000       0.50000       0.20000       0.50000       0.00000       0.00000       0.00000       1.00000  
hyd67                  0.00000       0.00000       1.00000       0.95000       1.00000       0.00000       0.00000       0.50000       0.20000       0.50000       0.00000       0.00000       0.00000       1.00000  
hyd68                  0.00000       0.00000       1.00000       0.95000       1.00000       0.00000       0.00000       0.50000       0.20000       0.50000       0.00000       0.00000       0.00000       1.00000  
hyd69                  0.00000       0.00000       1.00000       0.95000       1.00000       0.00000       0.00000       0.50000       0.20000       0.50000       0.00000       0.00000       0.00000       1.00000  
hyd70                  0.00000       0.00000       1.00000       0.95000       1.00000       0.00000       0.00000       0.50000       0.20000       0.50000       0.00000       0.00000       0.00000       1.00000  
hyd71                  0.00000       0.00000       1.00000       0.95000       1.00000       0.00000       0.00000       0.50000       0.20000       0.50000       0.00000       0.00000       0.00000       1.00000  
hyd72                  0.00000       0.00000       1.00000       0.95000       1.00000       0.00000       0.00000       0.50000       0.20000       0.50000       0.00000       0.00000       0.00000       1.00000  
hyd73                  0.00000       0.00000       1.00000       0.95000       1.00000       0.00000       0.00000       0.50000       0.20000       0.50000       0.00000       0.00000       0.00000       1.00000  
hyd74                  0.00000       0.00000       1.00000       0.95000       1.00000       0.00000       0.00000       0.50000       0.20000       0.50000       0.00000       0.00000       0.00000       1.00000  
hyd75                  0.00000       0.00000       1.00000       0.95000       1.00000       0.00000       0.00000       0.50000       0.20000       0.50000       0.00000       0.00000       0.00000       1.00000  
hyd76                  0.00000       0.00000       1.00000       0.95000       1.00000       0.00000       0.00000       0.50000       0.20000       0.50000       0.00000       0.00000       0.00000       1.00000  
hyd77                  0.00000       0.00000       1.00000       0.95000       1.00000       0.00000       0.00000       0.50000       0.20000       0.50000       0.00000       0.00000       0.00000       1.00000  
hyd78                  0.00000       0.00000       1.00000       0.95000       1.00000       0.00000       0.00000       0.50000       0.20000       0.50000       0.00000       0.00000       0.00000       1.00000  
hyd79                  0.00000       0.00000       1.00000       0.95000       1.00000       0.00000       0.00000       0.50000       0.20000       0.50000       0.00000       0.00000       0.00000       1.00000  
hyd80                  0.00000       0.00000       1.00000       0.95000       1.00000       0.00000       0.00000       0.50000       0.20000       0.50000       0.00000       0.00000       0.00000       1.00000  
hyd81                  0.00000       0.00000       1.00000       0.95000       1.00000       0.00000       0.00000       0.50000       0.20000       0.50000       0.00000       0.00000       0.00000       1.00000  
hyd82                  0.00000       0.00000       1.00000       0.95000       1.00000       0.00000       0.00000       0.50000       0.20000       0.50000       0.00000       0.00000       0.00000       1.00000  
hyd83                  0.00000       0.00000       1.00000       0.95000       1.00000       0.00000       0.00000       0.50000       0.20000       0.50000       0.00000       0.00000       0.00000       1.00000  
hyd84                  0.00000       0.00000       1.00000       0.95000       1.00000       0.00000       0.00000       0.50000       0.20000       0.50000       0.00000       0.00000       0.00000       1.00000  
hyd85                  0.00000       0.00000       1.00000       0.95000       1.00000       0.00000       0.00000       0.50000       0.20000       0.50000       0.00000       0.00000       0.00000       1.00000  
hyd86                  0.00000       0.00000       1.00000       0.95000       1.00000       0.00000       0.00000       0.50000       0.20000       0.50000       0.00000       0.00000       0.00000       1.00000  
hyd87                  0.00000       0.00000       1.00000       0.95000       1.00000       0.00000       0.00000       0.50000       0.20000       0.50000       0.00000       0.00000       0.00000       1.00000  
hyd88                  0.00000       0.00000       1.00000       0.95000       1.00000       0.00000       0.00000       0.50000       0.20000       0.50000       0.00000       0.00000       0.00000       1.00000  
hyd89                  0.00000       0.00000       1.00000       0.95000       1.00000       0.00000       0.00000       0.50000       0.20000       0.50000       0.00000       0.00000       0.00000       1.00000  
hyd90                  0.00000       0.00000       1.00000       0.95000       1.00000       0.00000       0.00000       0.50000       0.20000       0.50000       0.00000       0.00000       0.00000       1.00000  
hyd91                  0.00000       0.00000       1.00000       0.95000       1.00000       0.00000       0.00000       0.50000       0.20000       0.50000       0.00000       0.00000       0.00000       1.00000  
