initial.aqu: written by SWAT+ editor v1.2.3 on 2020-07-08 09:06
name                       org_min              pest              path              hmet              salt  description       
initaqu1                   no_init              null              null              null              null  null              
