landuse.lum: written by SWAT+ editor v1.2.3 on 2020-07-08 09:06
name                         cal_group          plnt_com               mgt               cn2         cons_prac             urban            urb_ro           ov_mann              tile               sep               vfs              grww               bmp  
agrl_lum                          null         agrl_comm          agrl_rot        rc_strow_g       cross_slope              null              null      convtill_res              null              null              null              null              null  
past_lum                          null         past_comm              null           pastg_f     up_down_slope              null              null        densegrass              null              null              null              null              null  
