ls_unit.def: written by SWAT+ editor v1.2.3 on 2020-07-08 09:06
91
      id              name          area  elem_tot  elements  
       1            rtu010      50.58000         1         7  
       2            rtu020      34.74000         1         5  
       3            rtu030       5.58000         1         9  
       4            rtu040       8.01000         1        12  
       5            rtu050      14.31000         1        14  
       6            rtu060      28.89000         1        17  
       7            rtu070       0.63000         1        60  
       8            rtu080      54.63000         1        61  
       9            rtu090      17.01000         1        15  
      10            rtu100      16.02000         1         8  
      11            rtu110       2.43000         1         6  
      12            rtu120      14.49000         1        40  
      13            rtu130      45.00000         1         1  
      14            rtu140      14.22000         1         3  
      15            rtu150      14.04000         1        62  
      16            rtu160      23.67000         1        37  
      17            rtu170      12.33000         1        13  
      18            rtu180      18.45000         1        10  
      19            rtu190      17.91000         1         4  
      20            rtu200      17.91000         1         2  
      21            rtu210      21.06000         1        73  
      22            rtu220       8.37000         1        11  
      23            rtu230       8.46000         1        21  
      24            rtu240      10.26000         1        24  
      25            rtu250       0.27000         1        41  
      26            rtu260       5.67000         1        26  
      27            rtu270       2.70000         1        29  
      28            rtu280       0.90000         1        30  
      29            rtu290      15.84000         1        38  
      30            rtu300       1.89000         1        44  
      31            rtu310      13.32000         1        42  
      32            rtu320      14.67000         1        47  
      33            rtu330       5.94000         1        43  
      34            rtu340       9.90000         1        64  
      35            rtu350      29.88000         1        50  
      36            rtu360       9.90000         1        39  
      37            rtu370      23.22000         1        31  
      38            rtu380      30.60000         1        63  
      39            rtu390      10.71000         1        16  
      40            rtu400       4.59000         1        20  
      41            rtu410      16.65000         1        28  
      42            rtu420      11.70000         1        51  
      43            rtu430      14.40000         1        25  
      44            rtu440       8.91000         1        74  
      45            rtu450      14.22000         1        48  
      46            rtu460      18.27000         1        49  
      47            rtu470       9.18000         1        23  
      48            rtu480      13.68000         1        46  
      49            rtu490      15.75000         1        22  
      50            rtu500      15.66000         1        19  
      51            rtu510      13.14000         1        45  
      52            rtu520      17.64000         1        18  
      53            rtu530       9.00000         1        79  
      54            rtu540      25.56000         1        75  
      55            rtu550      36.81000         1        32  
      56            rtu560      16.74000         1        35  
      57            rtu570      10.53000         1        80  
      58            rtu580      45.00000         1        89  
      59            rtu590     101.79000         1        76  
      60            rtu600       1.62000         1        66  
      61            rtu610       5.49000         1        67  
      62            rtu620      50.85000         1        70  
      63            rtu630       6.66000         1        53  
      64            rtu640      39.33000         1        27  
      65            rtu650       2.61000         1        55  
      66            rtu660       6.84000         1        54  
      67            rtu670      13.41000         1        56  
      68            rtu680       7.83000         1        34  
      69            rtu690      19.80000         1        58  
      70            rtu700      11.52000         1        77  
      71            rtu710       8.91000         1        78  
      72            rtu720      32.04000         1        68  
      73            rtu730      21.33000         1        36  
      74            rtu740      40.05000         1        57  
      75            rtu750       9.27000         1        69  
      76            rtu760      12.06000         1        33  
      77            rtu770       9.00000         1        59  
      78            rtu780       9.27000         1        65  
      79            rtu790      44.82000         1        52  
      80            rtu800      63.36000         1        81  
      81            rtu810       1.17000         1        85  
      82            rtu820       1.62000         1        87  
      83            rtu830      28.62000         1        86  
      84            rtu840      13.95000         1        88  
      85            rtu850      29.97000         1        90  
      86            rtu860      28.08000         1        91  
      87            rtu870      22.23000         1        84  
      88            rtu880      27.18000         1        82  
      89            rtu890      12.78000         1        72  
      90            rtu900      28.89000         1        83  
      91            rtu910      11.07000         1        71  
