ls_unit.ele: written by SWAT+ editor v1.2.3 on 2020-07-08 09:06
      id  name                   obj_typ  obj_typ_no      bsn_frac      sub_frac      reg_frac  
       1  hru01                      hru           1     2.6862E-2       1.00000       0.00000  
       2  hru02                      hru           2     1.0691E-2       1.00000       0.00000  
       3  hru03                      hru           3     8.4882E-3       1.00000       0.00000  
       4  hru04                      hru           4     1.0691E-2       1.00000       0.00000  
       5  hru05                      hru           5     2.0737E-2       1.00000       0.00000  
       6  hru06                      hru           6     1.4505E-3       1.00000       0.00000  
       7  hru07                      hru           7     3.0192E-2       1.00000       0.00000  
       8  hru08                      hru           8     9.5627E-3       1.00000       0.00000  
       9  hru09                      hru           9     3.3308E-3       1.00000       0.00000  
      10  hru10                      hru          10     1.1013E-2       1.00000       0.00000  
      11  hru11                      hru          11     4.9962E-3       1.00000       0.00000  
      12  hru12                      hru          12     4.7813E-3       1.00000       0.00000  
      13  hru13                      hru          13     7.3601E-3       1.00000       0.00000  
      14  hru14                      hru          14     8.5420E-3       1.00000       0.00000  
      15  hru15                      hru          15     1.0154E-2       1.00000       0.00000  
      16  hru16                      hru          16     6.3930E-3       1.00000       0.00000  
      17  hru17                      hru          17     1.7245E-2       1.00000       0.00000  
      18  hru18                      hru          18     1.0530E-2       1.00000       0.00000  
      19  hru19                      hru          19     9.3478E-3       1.00000       0.00000  
      20  hru20                      hru          20     2.7399E-3       1.00000       0.00000  
      21  hru21                      hru          21     5.0500E-3       1.00000       0.00000  
      22  hru22                      hru          22     9.4015E-3       1.00000       0.00000  
      23  hru23                      hru          23     5.4797E-3       1.00000       0.00000  
      24  hru24                      hru          24     6.1244E-3       1.00000       0.00000  
      25  hru25                      hru          25     8.5957E-3       1.00000       0.00000  
      26  hru26                      hru          26     3.3845E-3       1.00000       0.00000  
      27  hru27                      hru          27     2.3477E-2       1.00000       0.00000  
      28  hru28                      hru          28     9.9388E-3       1.00000       0.00000  
      29  hru29                      hru          29     1.6117E-3       1.00000       0.00000  
      30  hru30                      hru          30     5.3723E-4       1.00000       0.00000  
      31  hru31                      hru          31     1.3861E-2       1.00000       0.00000  
      32  hru32                      hru          32     2.1973E-2       1.00000       0.00000  
      33  hru33                      hru          33     7.1989E-3       1.00000       0.00000  
      34  hru34                      hru          34     4.6739E-3       1.00000       0.00000  
      35  hru35                      hru          35     9.9925E-3       1.00000       0.00000  
      36  hru36                      hru          36     1.2732E-2       1.00000       0.00000  
      37  hru37                      hru          37     1.4129E-2       1.00000       0.00000  
      38  hru38                      hru          38     9.4552E-3       1.00000       0.00000  
      39  hru39                      hru          39     5.9095E-3       1.00000       0.00000  
      40  hru40                      hru          40     8.6494E-3       1.00000       0.00000  
      41  hru41                      hru          41     1.6117E-4       1.00000       0.00000  
      42  hru42                      hru          42     7.9510E-3       1.00000       0.00000  
      43  hru43                      hru          43     3.5457E-3       1.00000       0.00000  
      44  hru44                      hru          44     1.1282E-3       1.00000       0.00000  
      45  hru45                      hru          45     7.8436E-3       1.00000       0.00000  
      46  hru46                      hru          46     8.1659E-3       1.00000       0.00000  
      47  hru47                      hru          47     8.7568E-3       1.00000       0.00000  
      48  hru48                      hru          48     8.4882E-3       1.00000       0.00000  
      49  hru49                      hru          49     1.0906E-2       1.00000       0.00000  
      50  hru50                      hru          50     1.7836E-2       1.00000       0.00000  
      51  hru51                      hru          51     6.9840E-3       1.00000       0.00000  
      52  hru52                      hru          52     2.6754E-2       1.00000       0.00000  
      53  hru53                      hru          53     3.9755E-3       1.00000       0.00000  
      54  hru54                      hru          54     4.0829E-3       1.00000       0.00000  
      55  hru55                      hru          55     1.5580E-3       1.00000       0.00000  
      56  hru56                      hru          56     8.0047E-3       1.00000       0.00000  
      57  hru57                      hru          57     2.3907E-2       1.00000       0.00000  
      58  hru58                      hru          58     1.1819E-2       1.00000       0.00000  
      59  hru59                      hru          59     5.3723E-3       1.00000       0.00000  
      60  hru60                      hru          60     3.7606E-4       1.00000       0.00000  
      61  hru61                      hru          61     3.2610E-2       1.00000       0.00000  
      62  hru62                      hru          62     8.3808E-3       1.00000       0.00000  
      63  hru63                      hru          63     1.8266E-2       1.00000       0.00000  
      64  hru64                      hru          64     5.9095E-3       1.00000       0.00000  
      65  hru65                      hru          65     5.5335E-3       1.00000       0.00000  
      66  hru66                      hru          66     9.6701E-4       1.00000       0.00000  
      67  hru67                      hru          67     3.2771E-3       1.00000       0.00000  
      68  hru68                      hru          68     1.9125E-2       1.00000       0.00000  
      69  hru69                      hru          69     5.5335E-3       1.00000       0.00000  
      70  hru70                      hru          70     3.0353E-2       1.00000       0.00000  
      71  hru71                      hru          71     6.6079E-3       1.00000       0.00000  
      72  hru72                      hru          72     7.6287E-3       1.00000       0.00000  
      73  hru73                      hru          73     1.2571E-2       1.00000       0.00000  
      74  hru74                      hru          74     5.3186E-3       1.00000       0.00000  
      75  hru75                      hru          75     1.5257E-2       1.00000       0.00000  
      76  hru76                      hru          76     6.0761E-2       1.00000       0.00000  
      77  hru77                      hru          77     6.8765E-3       1.00000       0.00000  
      78  hru78                      hru          78     5.3186E-3       1.00000       0.00000  
      79  hru79                      hru          79     5.3723E-3       1.00000       0.00000  
      80  hru80                      hru          80     6.2856E-3       1.00000       0.00000  
      81  hru81                      hru          81     3.7821E-2       1.00000       0.00000  
      82  hru82                      hru          82     1.6224E-2       1.00000       0.00000  
      83  hru83                      hru          83     1.7245E-2       1.00000       0.00000  
      84  hru84                      hru          84     1.3270E-2       1.00000       0.00000  
      85  hru85                      hru          85     6.9840E-4       1.00000       0.00000  
      86  hru86                      hru          86     1.7084E-2       1.00000       0.00000  
      87  hru87                      hru          87     9.6701E-4       1.00000       0.00000  
      88  hru88                      hru          88     8.3271E-3       1.00000       0.00000  
      89  hru89                      hru          89     2.6862E-2       1.00000       0.00000  
      90  hru90                      hru          90     1.7890E-2       1.00000       0.00000  
      91  hru91                      hru          91     1.6762E-2       1.00000       0.00000  
