management.sch: written by SWAT+ editor v1.2.3 on 2020-07-08 09:06
name                       numb_ops  numb_auto            op_typ       mon       day        hu_sch          op_data1          op_data2      op_data3  
agrl_rot                          0          1  
                                                      pl_hv_agrl  
