nutrients.sol: written by SWAT+ editor v1.2.3 on 2020-07-08 09:06
name                     dp_co         tot_n         min_n         org_n         tot_p         min_p         org_p         sol_p         h3a_p        mehl_p        bray_p  description
soilnut1              13.00000       6.00000       3.00000       3.00000       3.50000       0.40000       0.15000       0.25000       1.20000       0.85000       0.85000  
