object.cnt: written by SWAT+ editor v1.2.3 on 2020-07-08 09:05
name                   ls_area      tot_area       obj       hru      lhru       rtu       mfl       aqu       cha       res       rec      exco       dlr       can       pmp       out      lcha     aqu2d       hrd       wro  
Trial_Robit         1675.26000    1675.26000       374        91         0        91         0        10         0         0        91         0         0         0         0         0        91         0         0         0  
