pcp.cli: Precipitation file names - file written by SWAT+ editor 2020-05-31 10:37:01.151315
filename
robpcp.pcp
