recall.con: written by SWAT+ editor v1.2.3 on 2020-07-08 09:05
      id  name                gis_id          area           lat           lon          elev       rec               wst       cst      ovfl      rule   out_tot       obj_typ    obj_id       hyd_typ          frac  
       1  pt002                    2       0.00001      11.67787      37.45311    1819.00000         1     sta1171n3750e         0         0         0         1           sdc         1           tot       1.00000  
       2  pt004                    4       0.00001      11.67708      37.45834    1838.00000         2     sta1171n3750e         0         0         0         1           sdc         2           tot       1.00000  
       3  pt006                    6       0.00001      11.67574      37.46000    1847.00000         3     sta1171n3750e         0         0         0         1           sdc         3           tot       1.00000  
       4  pt008                    8       0.00001      11.67630      37.46303    1852.00000         4     sta1171n3750e         0         0         0         1           sdc         4           tot       1.00000  
       5  pt010                   10       0.00001      11.67333      37.46552    1857.00000         5     sta1171n3750e         0         0         0         1           sdc         5           tot       1.00000  
       6  pt012                   12       0.00001      11.66847      37.47077    1879.00000         6     sta1171n3750e         0         0         0         1           sdc         6           tot       1.00000  
       7  pt014                   14       0.00001      11.67520      37.46028    1847.00000         7     sta1171n3750e         0         0         0         1           sdc         7           tot       1.00000  
       8  pt016                   16       0.00001      11.66573      37.46556    1882.00000         8     sta1171n3750e         0         0         0         1           sdc         8           tot       1.00000  
       9  pt018                   18       0.00001      11.67117      37.46911    1872.00000         9     sta1171n3750e         0         0         0         1           sdc         9           tot       1.00000  
      10  pt020                   20       0.00001      11.67728      37.44376    1810.00000        10     sta1171n3750e         0         0         0         1           sdc        10           tot       1.00000  
      11  pt022                   22       0.00001      11.67896      37.45393    1827.00000        11     sta1171n3750e         0         0         0         1           sdc        11           tot       1.00000  
      12  pt024                   24       0.00001      11.67163      37.45260    1834.00000        12     sta1171n3750e         0         0         0         1           sdc        12           tot       1.00000  
      13  pt026                   26       0.00001      11.68244      37.44648    1835.00000        13     sta1171n3750e         0         0         0         1           sdc        13           tot       1.00000  
      14  pt028                   28       0.00001      11.68059      37.45557    1839.00000        14     sta1171n3750e         0         0         0         1           sdc        14           tot       1.00000  
      15  pt030                   30       0.00001      11.67221      37.45947    1868.00000        15     sta1171n3750e         0         0         0         1           sdc        15           tot       1.00000  
      16  pt032                   32       0.00001      11.67353      37.45396    1843.00000        16     sta1171n3750e         0         0         0         1           sdc        16           tot       1.00000  
      17  pt034                   34       0.00001      11.67630      37.46440    1854.00000        17     sta1171n3750e         0         0         0         1           sdc        17           tot       1.00000  
      18  pt036                   36       0.00001      11.67681      37.45807    1839.00000        18     sta1171n3750e         0         0         0         1           sdc        18           tot       1.00000  
      19  pt038                   38       0.00001      11.67946      37.44705    1834.00000        19     sta1171n3750e         0         0         0         1           sdc        19           tot       1.00000  
      20  pt040                   40       0.00001      11.67977      37.45283    1833.00000        20     sta1171n3750e         0         0         0         1           sdc        20           tot       1.00000  
      21  pt042                   42       0.00001      11.67101      37.43884    1798.00000        21     sta1171n3750e         0         0         0         1           sdc        21           tot       1.00000  
      22  pt044                   44       0.00001      11.67401      37.44130    1805.00000        22     sta1171n3750e         0         0         0         1           sdc        22           tot       1.00000  
      23  pt046                   46       0.00001      11.66794      37.47270    1881.00000        23     sta1171n3750e         0         0         0         1           sdc        23           tot       1.00000  
      24  pt048                   48       0.00001      11.66551      37.47464    1892.00000        24     sta1171n3750e         0         0         0         1           sdc        24           tot       1.00000  
      25  pt050                   50       0.00001      11.67101      37.43939    1799.00000        25     sta1171n3750e         0         0         0         1           sdc        25           tot       1.00000  
      26  pt052                   52       0.00001      11.66471      37.47657    1898.00000        26     sta1171n3750e         0         0         0         1           sdc        26           tot       1.00000  
      27  pt054                   54       0.00001      11.66389      37.47713    1899.00000        27     sta1171n3750e         0         0         0         1           sdc        27           tot       1.00000  
      28  pt056                   56       0.00001      11.66335      37.47741    1900.00000        28     sta1171n3750e         0         0         0         1           sdc        28           tot       1.00000  
      29  pt058                   58       0.00001      11.67240      37.44406    1804.00000        29     sta1171n3750e         0         0         0         1           sdc        29           tot       1.00000  
      30  pt060                   60       0.00001      11.67048      37.44022    1800.00000        30     sta1171n3750e         0         0         0         1           sdc        30           tot       1.00000  
      31  pt062                   62       0.00001      11.66969      37.44463    1804.00000        31     sta1171n3750e         0         0         0         1           sdc        31           tot       1.00000  
      32  pt064                   64       0.00001      11.66618      37.44795    1819.00000        32     sta1171n3750e         0         0         0         1           sdc        32           tot       1.00000  
      33  pt066                   66       0.00001      11.67052      37.44765    1822.00000        33     sta1171n3750e         0         0         0         1           sdc        33           tot       1.00000  
      34  pt068                   68       0.00001      11.66221      37.46668    1889.00000        34     sta1171n3750e         0         0         0         1           sdc        34           tot       1.00000  
      35  pt070                   70       0.00001      11.66322      37.45319    1832.00000        35     sta1171n3750e         0         0         0         1           sdc        35           tot       1.00000  
      36  pt072                   72       0.00001      11.67325      37.45066    1818.00000        36     sta1171n3750e         0         0         0         1           sdc        36           tot       1.00000  
      37  pt074                   74       0.00001      11.66036      37.47550    1919.00000        37     sta1171n3750e         0         0         0         1           sdc        37           tot       1.00000  
      38  pt076                   76       0.00001      11.66276      37.46750    1890.00000        38     sta1171n3750e         0         0         0         1           sdc        38           tot       1.00000  
      39  pt078                   78       0.00001      11.67199      37.46993    1876.00000        39     sta1171n3750e         0         0         0         1           sdc        39           tot       1.00000  
      40  pt080                   80       0.00001      11.66904      37.47490    1894.00000        40     sta1171n3750e         0         0         0         1           sdc        40           tot       1.00000  
      41  pt082                   82       0.00001      11.66361      37.47383    1903.00000        41     sta1171n3750e         0         0         0         1           sdc        41           tot       1.00000  
      42  pt084                   84       0.00001      11.66541      37.45566    1848.00000        42     sta1171n3750e         0         0         0         1           sdc        42           tot       1.00000  
      43  pt086                   86       0.00001      11.66580      37.47822    1914.00000        43     sta1171n3750e         0         0         0         1           sdc        43           tot       1.00000  
      44  pt088                   88       0.00001      11.66585      37.43639    1795.00000        44     sta1171n3750e         0         0         0         1           sdc        44           tot       1.00000  
      45  pt090                   90       0.00001      11.66619      37.44905    1820.00000        45     sta1171n3750e         0         0         0         1           sdc        45           tot       1.00000  
      46  pt092                   92       0.00001      11.66730      37.45482    1856.00000        46     sta1171n3750e         0         0         0         1           sdc        46           tot       1.00000  
      47  pt094                   94       0.00001      11.66793      37.47078    1879.00000        47     sta1171n3750e         0         0         0         1           sdc        47           tot       1.00000  
      48  pt096                   96       0.00001      11.66777      37.44161    1802.00000        48     sta1171n3750e         0         0         0         1           sdc        48           tot       1.00000  
      49  pt098                   98       0.00001      11.66823      37.47683    1901.00000        49     sta1171n3750e         0         0         0         1           sdc        49           tot       1.00000  
      50  pt100                  100       0.00001      11.67013      37.47737    1906.00000        50     sta1171n3750e         0         0         0         1           sdc        50           tot       1.00000  
      51  pt102                  102       0.00001      11.67026      37.44985    1842.00000        51     sta1171n3750e         0         0         0         1           sdc        51           tot       1.00000  
      52  pt104                  104       0.00001      11.67065      37.47186    1884.00000        52     sta1171n3750e         0         0         0         1           sdc        52           tot       1.00000  
      53  pt106                  106       0.00001      11.66092      37.42844    1793.00000        53     sta1171n3750e         0         0         0         1           sdc        53           tot       1.00000  
      54  pt108                  108       0.00001      11.66584      37.43612    1797.00000        54     sta1171n3750e         0         0         0         1           sdc        54           tot       1.00000  
      55  pt110                  110       0.00001      11.65903      37.48046    1917.00000        55     sta1171n3750e         0         0         0         1           sdc        55           tot       1.00000  
      56  pt112                  112       0.00001      11.65578      37.48102    1924.00000        56     sta1171n3750e         0         0         0         1           sdc        56           tot       1.00000  
      57  pt114                  114       0.00001      11.65416      37.48296    1930.00000        57     sta1171n3750e         0         0         0         1           sdc        57           tot       1.00000  
      58  pt116                  116       0.00001      11.65034      37.47803    1953.00000        58     sta1171n3750e         0         0         0         1           sdc        58           tot       1.00000  
      59  pt118                  118       0.00001      11.65616      37.45048    1867.00000        59     sta1171n3750e         0         0         0         1           sdc        59           tot       1.00000  
      60  pt120                  120       0.00001      11.66140      37.46669    1891.00000        60     sta1171n3750e         0         0         0         1           sdc        60           tot       1.00000  
      61  pt122                  122       0.00001      11.65950      37.46615    1899.00000        61     sta1171n3750e         0         0         0         1           sdc        61           tot       1.00000  
      62  pt124                  124       0.00001      11.65165      37.46922    1941.00000        62     sta1171n3750e         0         0         0         1           sdc        62           tot       1.00000  
      63  pt126                  126       0.00001      11.66486      37.45456    1838.00000        63     sta1171n3750e         0         0         0         1           sdc        63           tot       1.00000  
      64  pt128                  128       0.00001      11.66393      37.48373    1946.00000        64     sta1171n3750e         0         0         0         1           sdc        64           tot       1.00000  
      65  pt130                  130       0.00001      11.66296      37.45429    1832.00000        65     sta1171n3750e         0         0         0         1           sdc        65           tot       1.00000  
      66  pt132                  132       0.00001      11.66297      37.45677    1845.00000        66     sta1171n3750e         0         0         0         1           sdc        66           tot       1.00000  
      67  pt134                  134       0.00001      11.65971      37.45541    1863.00000        67     sta1171n3750e         0         0         0         1           sdc        67           tot       1.00000  
      68  pt136                  136       0.00001      11.65851      37.48404    1935.00000        68     sta1171n3750e         0         0         0         1           sdc        68           tot       1.00000  
      69  pt138                  138       0.00001      11.65591      37.45488    1894.00000        69     sta1171n3750e         0         0         0         1           sdc        69           tot       1.00000  
      70  pt140                  140       0.00001      11.65589      37.45158    1874.00000        70     sta1171n3750e         0         0         0         1           sdc        70           tot       1.00000  
      71  pt142                  142       0.00001      11.65589      37.45021    1869.00000        71     sta1171n3750e         0         0         0         1           sdc        71           tot       1.00000  
      72  pt144                  144       0.00001      11.65627      37.47222    1934.00000        72     sta1171n3750e         0         0         0         1           sdc        72           tot       1.00000  
      73  pt146                  146       0.00001      11.65662      37.48652    1951.00000        73     sta1171n3750e         0         0         0         1           sdc        73           tot       1.00000  
      74  pt148                  148       0.00001      11.65648      37.45901    1904.00000        74     sta1171n3750e         0         0         0         1           sdc        74           tot       1.00000  
      75  pt150                  150       0.00001      11.65896      37.46725    1905.00000        75     sta1171n3750e         0         0         0         1           sdc        75           tot       1.00000  
      76  pt152                  152       0.00001      11.65960      37.48513    1943.00000        76     sta1171n3750e         0         0         0         1           sdc        76           tot       1.00000  
      77  pt154                  154       0.00001      11.65944      37.45569    1866.00000        77     sta1171n3750e         0         0         0         1           sdc        77           tot       1.00000  
      78  pt156                  156       0.00001      11.66167      37.46723    1892.00000        78     sta1171n3750e         0         0         0         1           sdc        78           tot       1.00000  
      79  pt158                  158       0.00001      11.66164      37.46201    1879.00000        79     sta1171n3750e         0         0         0         1           sdc        79           tot       1.00000  
      80  pt160                  160       0.00001      11.64904      37.48904    1959.00000        80     sta1171n3750e         0         0         0         1           sdc        80           tot       1.00000  
      81  pt162                  162       0.00001      11.64823      37.48932    1960.00000        81     sta1171n3750e         0         0         0         1           sdc        81           tot       1.00000  
      82  pt164                  164       0.00001      11.64796      37.49015    1968.00000        82     sta1171n3750e         0         0         0         1           sdc        82           tot       1.00000  
      83  pt166                  166       0.00001      11.64524      37.48823    1974.00000        83     sta1171n3750e         0         0         0         1           sdc        83           tot       1.00000  
      84  pt168                  168       0.00001      11.64662      37.49208    1994.00000        84     sta1171n3750e         0         0         0         1           sdc        84           tot       1.00000  
      85  pt170                  170       0.00001      11.64653      37.47585    1971.00000        85     sta1171n3750e         0         0         0         1           sdc        85           tot       1.00000  
      86  pt172                  172       0.00001      11.64709      37.47915    1972.00000        86     sta1171n3750e         0         0         0         1           sdc        86           tot       1.00000  
      87  pt174                  174       0.00001      11.64826      37.49537    2014.00000        87     sta1171n3750e         0         0         0         1           sdc        87           tot       1.00000  
      88  pt176                  176       0.00001      11.64819      37.48299    1969.00000        88     sta1171n3750e         0         0         0         1           sdc        88           tot       1.00000  
      89  pt178                  178       0.00001      11.65111      37.46977    1948.00000        89     sta1171n3750e         0         0         0         1           sdc        89           tot       1.00000  
      90  pt180                  180       0.00001      11.65206      37.49508    1999.00000        90     sta1171n3750e         0         0         0         1           sdc        90           tot       1.00000  
      91  pt182                  182       0.00001      11.65247      37.47004    1947.00000        91     sta1171n3750e         0         0         0         1           sdc        91           tot       1.00000  
