rout_unit.con: written by SWAT+ editor v1.2.3 on 2020-07-08 09:05
      id  name                gis_id          area           lat           lon          elev       rtu               wst       cst      ovfl      rule   out_tot       obj_typ    obj_id       hyd_typ          frac  
       1  rtu010                  10      50.58000      11.67545      37.44835    1821.69217         1     sta1171n3750e         0         0         0         2           sdc         1           tot       1.00000           aqu         1           rhg       1.00000  
       2  rtu020                  20      34.74000      11.67801      37.45740    1844.08031         2     sta1171n3750e         0         0         0         2           sdc         2           tot       1.00000           aqu         1           rhg       1.00000  
       3  rtu030                  30       5.58000      11.67666      37.45991    1848.67742         3     sta1171n3750e         0         0         0         2           sdc         3           tot       1.00000           aqu         1           rhg       1.00000  
       4  rtu040                  40       8.01000      11.67597      37.46188    1853.79775         4     sta1171n3750e         0         0         0         2           sdc         4           tot       1.00000           aqu         2           rhg       1.00000  
       5  rtu050                  50      14.31000      11.67448      37.46491    1860.77987         5     sta1171n3750e         0         0         0         2           sdc         5           tot       1.00000           aqu         2           rhg       1.00000  
       6  rtu060                  60      28.89000      11.66926      37.46770    1875.29907         6     sta1171n3750e         0         0         0         2           sdc         6           tot       1.00000           aqu         2           rhg       1.00000  
       7  rtu070                  70       0.63000      11.67523      37.46008    1848.14286         7     sta1171n3750e         0         0         0         2           sdc         7           tot       1.00000           aqu         4           rhg       1.00000  
       8  rtu080                  80      54.63000      11.66867      37.46314    1874.90445         8     sta1171n3750e         0         0         0         2           sdc         8           tot       1.00000           aqu         4           rhg       1.00000  
       9  rtu090                  90      17.01000      11.67290      37.46808    1872.30159         9     sta1171n3750e         0         0         0         2           sdc         9           tot       1.00000           aqu         2           rhg       1.00000  
      10  rtu100                 100      16.02000      11.67623      37.44386    1811.66292        10     sta1171n3750e         0         0         0         2           sdc        10           tot       1.00000           aqu         1           rhg       1.00000  
      11  rtu110                 110       2.43000      11.67870      37.45310    1829.92593        11     sta1171n3750e         0         0         0         2           sdc        11           tot       1.00000           aqu         1           rhg       1.00000  
      12  rtu120                 120      14.49000      11.67082      37.45417    1853.49068        12     sta1171n3750e         0         0         0         2           sdc        12           tot       1.00000           aqu         3           rhg       1.00000  
      13  rtu130                 130      45.00000      11.68176      37.44587    1833.95000        13     sta1171n3750e         0         0         0         2           sdc        13           tot       1.00000           aqu         1           rhg       1.00000  
      14  rtu140                 140      14.22000      11.68130      37.45536    1841.50633        14     sta1171n3750e         0         0         0         2           sdc        14           tot       1.00000           aqu         1           rhg       1.00000  
      15  rtu150                 150      14.04000      11.67092      37.45983    1872.15385        15     sta1171n3750e         0         0         0         2           sdc        15           tot       1.00000           aqu         4           rhg       1.00000  
      16  rtu160                 160      23.67000      11.67332      37.45424    1848.00760        16     sta1171n3750e         0         0         0         2           sdc        16           tot       1.00000           aqu         3           rhg       1.00000  
      17  rtu170                 170      12.33000      11.67632      37.46624    1866.94161        17     sta1171n3750e         0         0         0         2           sdc        17           tot       1.00000           aqu         2           rhg       1.00000  
      18  rtu180                 180      18.45000      11.67393      37.45800    1857.96585        18     sta1171n3750e         0         0         0         2           sdc        18           tot       1.00000           aqu         1           rhg       1.00000  
      19  rtu190                 190      17.91000      11.67962      37.44779    1841.26633        19     sta1171n3750e         0         0         0         2           sdc        19           tot       1.00000           aqu         1           rhg       1.00000  
      20  rtu200                 200      17.91000      11.68083      37.45208    1843.97990        20     sta1171n3750e         0         0         0         2           sdc        20           tot       1.00000           aqu         1           rhg       1.00000  
      21  rtu210                 210      21.06000      11.66916      37.43784    1798.91453        21     sta1171n3750e         0         0         0         2           sdc        21           tot       1.00000           aqu         5           rhg       1.00000  
      22  rtu220                 220       8.37000      11.67258      37.44018    1801.46237        22     sta1171n3750e         0         0         0         2           sdc        22           tot       1.00000           aqu         1           rhg       1.00000  
      23  rtu230                 230       8.46000      11.66711      37.47210    1888.90426        23     sta1171n3750e         0         0         0         2           sdc        23           tot       1.00000           aqu         2           rhg       1.00000  
      24  rtu240                 240      10.26000      11.66650      37.47414    1893.51754        24     sta1171n3750e         0         0         0         2           sdc        24           tot       1.00000           aqu         2           rhg       1.00000  
      25  rtu250                 250       0.27000      11.67092      37.43921    1799.00000        25     sta1171n3750e         0         0         0         2           sdc        25           tot       1.00000           aqu         3           rhg       1.00000  
      26  rtu260                 260       5.67000      11.66513      37.47584    1899.80952        26     sta1171n3750e         0         0         0         2           sdc        26           tot       1.00000           aqu         2           rhg       1.00000  
      27  rtu270                 270       2.70000      11.66458      37.47778    1906.90000        27     sta1171n3750e         0         0         0         2           sdc        27           tot       1.00000           aqu         2           rhg       1.00000  
      28  rtu280                 280       0.90000      11.66384      37.47773    1902.60000        28     sta1171n3750e         0         0         0         2           sdc        28           tot       1.00000           aqu         2           rhg       1.00000  
      29  rtu290                 290      15.84000      11.67199      37.44442    1806.85795        29     sta1171n3750e         0         0         0         2           sdc        29           tot       1.00000           aqu         3           rhg       1.00000  
      30  rtu300                 300       1.89000      11.67036      37.43972    1799.19048        30     sta1171n3750e         0         0         0         2           sdc        30           tot       1.00000           aqu         3           rhg       1.00000  
      31  rtu310                 310      13.32000      11.66973      37.44319    1804.58108        31     sta1171n3750e         0         0         0         2           sdc        31           tot       1.00000           aqu         3           rhg       1.00000  
      32  rtu320                 320      14.67000      11.66762      37.44673    1821.25153        32     sta1171n3750e         0         0         0         2           sdc        32           tot       1.00000           aqu         3           rhg       1.00000  
      33  rtu330                 330       5.94000      11.66993      37.44679    1820.45455        33     sta1171n3750e         0         0         0         2           sdc        33           tot       1.00000           aqu         3           rhg       1.00000  
      34  rtu340                 340       9.90000      11.66305      37.46516    1889.70909        34     sta1171n3750e         0         0         0         2           sdc        34           tot       1.00000           aqu         4           rhg       1.00000  
      35  rtu350                 350      29.88000      11.66440      37.45131    1841.39157        35     sta1171n3750e         0         0         0         2           sdc        35           tot       1.00000           aqu         3           rhg       1.00000  
      36  rtu360                 360       9.90000      11.67191      37.44964    1824.04545        36     sta1171n3750e         0         0         0         2           sdc        36           tot       1.00000           aqu         3           rhg       1.00000  
      37  rtu370                 370      23.22000      11.65920      37.47525    1936.76744        37     sta1171n3750e         0         0         0         2           sdc        37           tot       1.00000           aqu         2           rhg       1.00000  
      38  rtu380                 380      30.60000      11.66288      37.46933    1902.00000        38     sta1171n3750e         0         0         0         2           sdc        38           tot       1.00000           aqu         4           rhg       1.00000  
      39  rtu390                 390      10.71000      11.67292      37.47127    1885.90756        39     sta1171n3750e         0         0         0         2           sdc        39           tot       1.00000           aqu         2           rhg       1.00000  
      40  rtu400                 400       4.59000      11.66870      37.47416    1890.70588        40     sta1171n3750e         0         0         0         2           sdc        40           tot       1.00000           aqu         2           rhg       1.00000  
      41  rtu410                 410      16.65000      11.66254      37.47350    1912.32432        41     sta1171n3750e         0         0         0         2           sdc        41           tot       1.00000           aqu         2           rhg       1.00000  
      42  rtu420                 420      11.70000      11.66608      37.45817    1874.65385        42     sta1171n3750e         0         0         0         2           sdc        42           tot       1.00000           aqu         3           rhg       1.00000  
      43  rtu430                 430      14.40000      11.66618      37.47972    1933.81875        43     sta1171n3750e         0         0         0         2           sdc        43           tot       1.00000           aqu         2           rhg       1.00000  
      44  rtu440                 440       8.91000      11.66653      37.43873    1800.57576        44     sta1171n3750e         0         0         0         2           sdc        44           tot       1.00000           aqu         5           rhg       1.00000  
      45  rtu450                 450      14.22000      11.66735      37.45033    1838.86709        45     sta1171n3750e         0         0         0         2           sdc        45           tot       1.00000           aqu         3           rhg       1.00000  
      46  rtu460                 460      18.27000      11.66754      37.45616    1865.92611        46     sta1171n3750e         0         0         0         2           sdc        46           tot       1.00000           aqu         3           rhg       1.00000  
      47  rtu470                 470       9.18000      11.66584      37.47067    1895.17647        47     sta1171n3750e         0         0         0         2           sdc        47           tot       1.00000           aqu         2           rhg       1.00000  
      48  rtu480                 480      13.68000      11.66745      37.44244    1806.89474        48     sta1171n3750e         0         0         0         2           sdc        48           tot       1.00000           aqu         3           rhg       1.00000  
      49  rtu490                 490      15.75000      11.66812      37.47857    1923.80571        49     sta1171n3750e         0         0         0         2           sdc        49           tot       1.00000           aqu         2           rhg       1.00000  
      50  rtu500                 500      15.66000      11.67021      37.47761    1913.12069        50     sta1171n3750e         0         0         0         2           sdc        50           tot       1.00000           aqu         2           rhg       1.00000  
      51  rtu510                 510      13.14000      11.66964      37.45139    1849.93836        51     sta1171n3750e         0         0         0         2           sdc        51           tot       1.00000           aqu         3           rhg       1.00000  
      52  rtu520                 520      17.64000      11.67115      37.47259    1888.28061        52     sta1171n3750e         0         0         0         2           sdc        52           tot       1.00000           aqu         2           rhg       1.00000  
      53  rtu530                 530       9.00000      11.66010      37.42752    1790.94000        53     sta1171n3750e         0         0         0         2           sdc        53           tot       1.00000           aqu         7           rhg       1.00000  
      54  rtu540                 540      25.56000      11.66297      37.43228    1793.99648        54     sta1171n3750e         0         0         0         2           sdc        54           tot       1.00000           aqu         5           rhg       1.00000  
      55  rtu550                 550      36.81000      11.65952      37.47873    1929.63570        55     sta1171n3750e         0         0         0         2           sdc        55           tot       1.00000           aqu         2           rhg       1.00000  
      56  rtu560                 560      16.74000      11.65634      37.48039    1936.03226        56     sta1171n3750e         0         0         0         2           sdc        56           tot       1.00000           aqu         2           rhg       1.00000  
      57  rtu570                 570      10.53000      11.65454      37.48273    1938.67521        57     sta1171n3750e         0         0         0         2           sdc        57           tot       1.00000           aqu         8           rhg       1.00000  
      58  rtu580                 580      45.00000      11.65198      37.47820    1963.53600        58     sta1171n3750e         0         0         0         2           sdc        58           tot       1.00000           aqu         9           rhg       1.00000  
      59  rtu590                 590     101.79000      11.66122      37.44436    1841.77542        59     sta1171n3750e         0         0         0         2           sdc        59           tot       1.00000           aqu         6           rhg       1.00000  
      60  rtu600                 600       1.62000      11.66129      37.46583    1895.00000        60     sta1171n3750e         0         0         0         2           sdc        60           tot       1.00000           aqu         4           rhg       1.00000  
      61  rtu610                 610       5.49000      11.65989      37.46562    1901.73770        61     sta1171n3750e         0         0         0         2           sdc        61           tot       1.00000           aqu         4           rhg       1.00000  
      62  rtu620                 620      50.85000      11.65418      37.46687    1934.31858        62     sta1171n3750e         0         0         0         2           sdc        62           tot       1.00000           aqu         4           rhg       1.00000  
      63  rtu630                 630       6.66000      11.66434      37.45437    1840.44595        63     sta1171n3750e         0         0         0         2           sdc        63           tot       1.00000           aqu         3           rhg       1.00000  
      64  rtu640                 640      39.33000      11.66362      37.48245    1942.67735        64     sta1171n3750e         0         0         0         2           sdc        64           tot       1.00000           aqu         2           rhg       1.00000  
      65  rtu650                 650       2.61000      11.66230      37.45373    1842.82759        65     sta1171n3750e         0         0         0         2           sdc        65           tot       1.00000           aqu         3           rhg       1.00000  
      66  rtu660                 660       6.84000      11.66306      37.45612    1848.84211        66     sta1171n3750e         0         0         0         2           sdc        66           tot       1.00000           aqu         3           rhg       1.00000  
      67  rtu670                 670      13.41000      11.66031      37.45476    1869.23490        67     sta1171n3750e         0         0         0         2           sdc        67           tot       1.00000           aqu         3           rhg       1.00000  
      68  rtu680                 680       7.83000      11.65842      37.48276    1933.20690        68     sta1171n3750e         0         0         0         2           sdc        68           tot       1.00000           aqu         2           rhg       1.00000  
      69  rtu690                 690      19.80000      11.65553      37.45513    1909.70000        69     sta1171n3750e         0         0         0         2           sdc        69           tot       1.00000           aqu         3           rhg       1.00000  
      70  rtu700                 700      11.52000      11.65476      37.45268    1898.45312        70     sta1171n3750e         0         0         0         2           sdc        70           tot       1.00000           aqu         6           rhg       1.00000  
      71  rtu710                 710       8.91000      11.65408      37.45035    1890.37374        71     sta1171n3750e         0         0         0         2           sdc        71           tot       1.00000           aqu         6           rhg       1.00000  
      72  rtu720                 720      32.04000      11.65661      37.47138    1943.24438        72     sta1171n3750e         0         0         0         2           sdc        72           tot       1.00000           aqu         4           rhg       1.00000  
      73  rtu730                 730      21.33000      11.65673      37.48713    1969.56540        73     sta1171n3750e         0         0         0         2           sdc        73           tot       1.00000           aqu         2           rhg       1.00000  
      74  rtu740                 740      40.05000      11.65742      37.45936    1908.34607        74     sta1171n3750e         0         0         0         2           sdc        74           tot       1.00000           aqu         3           rhg       1.00000  
      75  rtu750                 750       9.27000      11.65660      37.46886    1931.05825        75     sta1171n3750e         0         0         0         2           sdc        75           tot       1.00000           aqu         4           rhg       1.00000  
      76  rtu760                 760      12.06000      11.65985      37.48590    1955.46269        76     sta1171n3750e         0         0         0         2           sdc        76           tot       1.00000           aqu         2           rhg       1.00000  
      77  rtu770                 770       9.00000      11.65764      37.45664    1895.87000        77     sta1171n3750e         0         0         0         2           sdc        77           tot       1.00000           aqu         3           rhg       1.00000  
      78  rtu780                 780       9.27000      11.65998      37.46979    1912.42718        78     sta1171n3750e         0         0         0         2           sdc        78           tot       1.00000           aqu         4           rhg       1.00000  
      79  rtu790                 790      44.82000      11.66181      37.46124    1888.16667        79     sta1171n3750e         0         0         0         2           sdc        79           tot       1.00000           aqu         3           rhg       1.00000  
      80  rtu800                 800      63.36000      11.65114      37.48702    1970.57528        80     sta1171n3750e         0         0         0         2           sdc        80           tot       1.00000           aqu         8           rhg       1.00000  
      81  rtu810                 810       1.17000      11.64827      37.48938    1961.30769        81     sta1171n3750e         0         0         0         2           sdc        81           tot       1.00000           aqu         8           rhg       1.00000  
      82  rtu820                 820       1.62000      11.64755      37.49018    1971.88889        82     sta1171n3750e         0         0         0         2           sdc        82           tot       1.00000           aqu         8           rhg       1.00000  
      83  rtu830                 830      28.62000      11.64481      37.48808    1986.80503        83     sta1171n3750e         0         0         0         2           sdc        83           tot       1.00000           aqu         8           rhg       1.00000  
      84  rtu840                 840      13.95000      11.64612      37.49299    2005.66452        84     sta1171n3750e         0         0         0         2           sdc        84           tot       1.00000           aqu         8           rhg       1.00000  
      85  rtu850                 850      29.97000      11.64665      37.47573    1984.42943        85     sta1171n3750e         0         0         0         2           sdc        85           tot       1.00000           aqu         9           rhg       1.00000  
      86  rtu860                 860      28.08000      11.64620      37.47923    1983.08974        86     sta1171n3750e         0         0         0         2           sdc        86           tot       1.00000           aqu         9           rhg       1.00000  
      87  rtu870                 870      22.23000      11.64814      37.49493    2008.90283        87     sta1171n3750e         0         0         0         2           sdc        87           tot       1.00000           aqu         8           rhg       1.00000  
      88  rtu880                 880      27.18000      11.64919      37.48281    1968.26821        88     sta1171n3750e         0         0         0         2           sdc        88           tot       1.00000           aqu         8           rhg       1.00000  
      89  rtu890                 890      12.78000      11.64980      37.47178    1975.00000        89     sta1171n3750e         0         0         0         2           sdc        89           tot       1.00000           aqu         4           rhg       1.00000  
      90  rtu900                 900      28.89000      11.65083      37.49399    1999.66978        90     sta1171n3750e         0         0         0         2           sdc        90           tot       1.00000           aqu         8           rhg       1.00000  
      91  rtu910                 910      11.07000      11.65225      37.47195    1970.95935        91     sta1171n3750e         0         0         0         2           sdc        91           tot       1.00000           aqu         4           rhg       1.00000  
