rout_unit.def: written by SWAT+ editor v1.2.3 on 2020-07-08 09:06
      id              name  elem_tot  elements  
       1            rtu010         1         7  
       2            rtu020         1         5  
       3            rtu030         1         9  
       4            rtu040         1        12  
       5            rtu050         1        14  
       6            rtu060         1        17  
       7            rtu070         1        60  
       8            rtu080         1        61  
       9            rtu090         1        15  
      10            rtu100         1         8  
      11            rtu110         1         6  
      12            rtu120         1        40  
      13            rtu130         1         1  
      14            rtu140         1         3  
      15            rtu150         1        62  
      16            rtu160         1        37  
      17            rtu170         1        13  
      18            rtu180         1        10  
      19            rtu190         1         4  
      20            rtu200         1         2  
      21            rtu210         1        73  
      22            rtu220         1        11  
      23            rtu230         1        21  
      24            rtu240         1        24  
      25            rtu250         1        41  
      26            rtu260         1        26  
      27            rtu270         1        29  
      28            rtu280         1        30  
      29            rtu290         1        38  
      30            rtu300         1        44  
      31            rtu310         1        42  
      32            rtu320         1        47  
      33            rtu330         1        43  
      34            rtu340         1        64  
      35            rtu350         1        50  
      36            rtu360         1        39  
      37            rtu370         1        31  
      38            rtu380         1        63  
      39            rtu390         1        16  
      40            rtu400         1        20  
      41            rtu410         1        28  
      42            rtu420         1        51  
      43            rtu430         1        25  
      44            rtu440         1        74  
      45            rtu450         1        48  
      46            rtu460         1        49  
      47            rtu470         1        23  
      48            rtu480         1        46  
      49            rtu490         1        22  
      50            rtu500         1        19  
      51            rtu510         1        45  
      52            rtu520         1        18  
      53            rtu530         1        79  
      54            rtu540         1        75  
      55            rtu550         1        32  
      56            rtu560         1        35  
      57            rtu570         1        80  
      58            rtu580         1        89  
      59            rtu590         1        76  
      60            rtu600         1        66  
      61            rtu610         1        67  
      62            rtu620         1        70  
      63            rtu630         1        53  
      64            rtu640         1        27  
      65            rtu650         1        55  
      66            rtu660         1        54  
      67            rtu670         1        56  
      68            rtu680         1        34  
      69            rtu690         1        58  
      70            rtu700         1        77  
      71            rtu710         1        78  
      72            rtu720         1        68  
      73            rtu730         1        36  
      74            rtu740         1        57  
      75            rtu750         1        69  
      76            rtu760         1        33  
      77            rtu770         1        59  
      78            rtu780         1        65  
      79            rtu790         1        52  
      80            rtu800         1        81  
      81            rtu810         1        85  
      82            rtu820         1        87  
      83            rtu830         1        86  
      84            rtu840         1        88  
      85            rtu850         1        90  
      86            rtu860         1        91  
      87            rtu870         1        84  
      88            rtu880         1        82  
      89            rtu890         1        72  
      90            rtu900         1        83  
      91            rtu910         1        71  
