rout_unit.ele: written by SWAT+ editor v1.2.3 on 2020-07-08 09:06
      id  name                   obj_typ    obj_id          frac               dlr  
       1  hru01                      hru         1     1.0000E+0                 0  
       2  hru02                      hru         2     1.0000E+0                 0  
       3  hru03                      hru         3     1.0000E+0                 0  
       4  hru04                      hru         4     1.0000E+0                 0  
       5  hru05                      hru         5     1.0000E+0                 0  
       6  hru06                      hru         6     1.0000E+0                 0  
       7  hru07                      hru         7     1.0000E+0                 0  
       8  hru08                      hru         8     1.0000E+0                 0  
       9  hru09                      hru         9     1.0000E+0                 0  
      10  hru10                      hru        10     1.0000E+0                 0  
      11  hru11                      hru        11     1.0000E+0                 0  
      12  hru12                      hru        12     1.0000E+0                 0  
      13  hru13                      hru        13     1.0000E+0                 0  
      14  hru14                      hru        14     1.0000E+0                 0  
      15  hru15                      hru        15     1.0000E+0                 0  
      16  hru16                      hru        16     1.0000E+0                 0  
      17  hru17                      hru        17     1.0000E+0                 0  
      18  hru18                      hru        18     1.0000E+0                 0  
      19  hru19                      hru        19     1.0000E+0                 0  
      20  hru20                      hru        20     1.0000E+0                 0  
      21  hru21                      hru        21     1.0000E+0                 0  
      22  hru22                      hru        22     1.0000E+0                 0  
      23  hru23                      hru        23     1.0000E+0                 0  
      24  hru24                      hru        24     1.0000E+0                 0  
      25  hru25                      hru        25     1.0000E+0                 0  
      26  hru26                      hru        26     1.0000E+0                 0  
      27  hru27                      hru        27     1.0000E+0                 0  
      28  hru28                      hru        28     1.0000E+0                 0  
      29  hru29                      hru        29     1.0000E+0                 0  
      30  hru30                      hru        30     1.0000E+0                 0  
      31  hru31                      hru        31     1.0000E+0                 0  
      32  hru32                      hru        32     1.0000E+0                 0  
      33  hru33                      hru        33     1.0000E+0                 0  
      34  hru34                      hru        34     1.0000E+0                 0  
      35  hru35                      hru        35     1.0000E+0                 0  
      36  hru36                      hru        36     1.0000E+0                 0  
      37  hru37                      hru        37     1.0000E+0                 0  
      38  hru38                      hru        38     1.0000E+0                 0  
      39  hru39                      hru        39     1.0000E+0                 0  
      40  hru40                      hru        40     1.0000E+0                 0  
      41  hru41                      hru        41     1.0000E+0                 0  
      42  hru42                      hru        42     1.0000E+0                 0  
      43  hru43                      hru        43     1.0000E+0                 0  
      44  hru44                      hru        44     1.0000E+0                 0  
      45  hru45                      hru        45     1.0000E+0                 0  
      46  hru46                      hru        46     1.0000E+0                 0  
      47  hru47                      hru        47     1.0000E+0                 0  
      48  hru48                      hru        48     1.0000E+0                 0  
      49  hru49                      hru        49     1.0000E+0                 0  
      50  hru50                      hru        50     1.0000E+0                 0  
      51  hru51                      hru        51     1.0000E+0                 0  
      52  hru52                      hru        52     1.0000E+0                 0  
      53  hru53                      hru        53     1.0000E+0                 0  
      54  hru54                      hru        54     1.0000E+0                 0  
      55  hru55                      hru        55     1.0000E+0                 0  
      56  hru56                      hru        56     1.0000E+0                 0  
      57  hru57                      hru        57     1.0000E+0                 0  
      58  hru58                      hru        58     1.0000E+0                 0  
      59  hru59                      hru        59     1.0000E+0                 0  
      60  hru60                      hru        60     1.0000E+0                 0  
      61  hru61                      hru        61     1.0000E+0                 0  
      62  hru62                      hru        62     1.0000E+0                 0  
      63  hru63                      hru        63     1.0000E+0                 0  
      64  hru64                      hru        64     1.0000E+0                 0  
      65  hru65                      hru        65     1.0000E+0                 0  
      66  hru66                      hru        66     1.0000E+0                 0  
      67  hru67                      hru        67     1.0000E+0                 0  
      68  hru68                      hru        68     1.0000E+0                 0  
      69  hru69                      hru        69     1.0000E+0                 0  
      70  hru70                      hru        70     1.0000E+0                 0  
      71  hru71                      hru        71     1.0000E+0                 0  
      72  hru72                      hru        72     1.0000E+0                 0  
      73  hru73                      hru        73     1.0000E+0                 0  
      74  hru74                      hru        74     1.0000E+0                 0  
      75  hru75                      hru        75     1.0000E+0                 0  
      76  hru76                      hru        76     1.0000E+0                 0  
      77  hru77                      hru        77     1.0000E+0                 0  
      78  hru78                      hru        78     1.0000E+0                 0  
      79  hru79                      hru        79     1.0000E+0                 0  
      80  hru80                      hru        80     1.0000E+0                 0  
      81  hru81                      hru        81     1.0000E+0                 0  
      82  hru82                      hru        82     1.0000E+0                 0  
      83  hru83                      hru        83     1.0000E+0                 0  
      84  hru84                      hru        84     1.0000E+0                 0  
      85  hru85                      hru        85     1.0000E+0                 0  
      86  hru86                      hru        86     1.0000E+0                 0  
      87  hru87                      hru        87     1.0000E+0                 0  
      88  hru88                      hru        88     1.0000E+0                 0  
      89  hru89                      hru        89     1.0000E+0                 0  
      90  hru90                      hru        90     1.0000E+0                 0  
      91  hru91                      hru        91     1.0000E+0                 0  
