slr.cli: Solar radiation file names - file written by SWAT+ editor 2020-05-31 10:37:01.365799
filename
robsol.slr
