soils.sol: written by SWAT+ editor v1.2.3 on 2020-07-08 09:06
name                            nly           hyd_grp        dp_tot    anion_excl      perc_crk  texture                              dp            bd           awc        soil_k        carbon          clay          silt          sand          rock           alb        usle_k            ec         caco3            ph  
LVx                               3                 D    1600.00000       0.50000       0.50000  C                          
                                                                                                                               250.00000       1.22000       0.11000       2.64000       3.77000      56.91000      32.64000      10.45000       0.00000       0.13000       0.18000       0.09000       0.00000       0.00000  
                                                                                                                               650.00000       1.17000       0.10000       1.34000       1.74000      65.69000      25.58000       8.74000       0.00000       0.30000       0.17000       0.06000       0.00000       0.00000  
                                                                                                                              1600.00000       1.13000       0.10000       0.98000       0.46000      68.38000      22.37000       9.26000       0.00000       0.50000       0.16000       0.06000       0.00000       0.00000  
VRe                               3                 D    1450.00000       0.50000       0.50000  C                          
                                                                                                                               200.00000       1.19000       0.07000       1.77000       3.59000      68.04000      24.64000       7.32000       0.00000       0.14000       0.18000       0.11000       0.00000       0.00000  
                                                                                                                               650.00000       1.11000       0.07000       1.27000       1.84000      74.63000      18.61000       6.53000       0.23000       0.29000       0.17000       0.11000       0.00000       0.00000  
                                                                                                                              1450.00000       1.10000       0.09000       0.98000       1.14000      73.07000      18.34000       8.59000       0.00000       0.38000       0.15000       0.16000       0.00000       0.00000  
