time.sim: written by SWAT+ editor v1.2.3 on 2020-07-08 09:05
day_start  yrc_start   day_end   yrc_end      step  
       0      1990         0      2013         0  
