tmp.cli: Temperature file names - file written by SWAT+ editor 2020-05-31 10:37:01.541556
filename
robtmp.tmp
