topography.hyd: written by SWAT+ editor v1.2.3 on 2020-07-08 09:06
name                       slp       slp_len       lat_len      dist_cha         depos  
topohru01              0.05700      30.00000      30.00000     121.00000       0.00000  
topohru02              0.06807      30.00000      30.00000     121.00000       0.00000  
topohru03              0.05252      30.00000      30.00000     121.00000       0.00000  
topohru04              0.06823      30.00000      30.00000     121.00000       0.00000  
topohru05              0.07790      30.00000      30.00000     121.00000       0.00000  
topohru06              0.11313      10.00000      10.00000     121.00000       0.00000  
topohru07              0.08644      10.00000      10.00000     121.00000       0.00000  
topohru08              0.04874      60.00000      60.00000     121.00000       0.00000  
topohru09              0.06012      30.00000      30.00000     121.00000       0.00000  
topohru10              0.06102      30.00000      30.00000     121.00000       0.00000  
topohru11              0.03020      60.00000      60.00000     121.00000       0.00000  
topohru12              0.05929      30.00000      30.00000     121.00000       0.00000  
topohru13              0.06065      30.00000      30.00000     121.00000       0.00000  
topohru14              0.05121      30.00000      30.00000     121.00000       0.00000  
topohru15              0.06202      30.00000      30.00000     121.00000       0.00000  
topohru16              0.06388      30.00000      30.00000     121.00000       0.00000  
topohru17              0.06053      30.00000      30.00000     121.00000       0.00000  
topohru18              0.05655      30.00000      30.00000     121.00000       0.00000  
topohru19              0.08832      10.00000      10.00000     121.00000       0.00000  
topohru20              0.06013      30.00000      30.00000     121.00000       0.00000  
topohru21              0.05789      30.00000      30.00000     121.00000       0.00000  
topohru22              0.10248      10.00000      10.00000     121.00000       0.00000  
topohru23              0.07634      30.00000      30.00000     121.00000       0.00000  
topohru24              0.06073      30.00000      30.00000     121.00000       0.00000  
topohru25              0.11588      10.00000      10.00000     121.00000       0.00000  
topohru26              0.06494      30.00000      30.00000     121.00000       0.00000  
topohru27              0.12970      10.00000      10.00000     121.00000       0.00000  
topohru28              0.07090      30.00000      30.00000     121.00000       0.00000  
topohru29              0.08163      10.00000      10.00000     121.00000       0.00000  
topohru30              0.04673      60.00000      60.00000     121.00000       0.00000  
topohru31              0.09498      10.00000      10.00000     121.00000       0.00000  
topohru32              0.12403      10.00000      10.00000     121.00000       0.00000  
topohru33              0.09532      10.00000      10.00000     121.00000       0.00000  
topohru34              0.10006      10.00000      10.00000     121.00000       0.00000  
topohru35              0.11181      10.00000      10.00000     121.00000       0.00000  
topohru36              0.14392      10.00000      10.00000     121.00000       0.00000  
topohru37              0.08936      10.00000      10.00000     121.00000       0.00000  
topohru38              0.03920      60.00000      60.00000     121.00000       0.00000  
topohru39              0.07501      30.00000      30.00000     121.00000       0.00000  
topohru40              0.08521      10.00000      10.00000     121.00000       0.00000  
topohru41              0.00000     121.00000     121.00000     121.00000       0.00000  
topohru42              0.03785      60.00000      60.00000     121.00000       0.00000  
topohru43              0.08660      10.00000      10.00000     121.00000       0.00000  
topohru44              0.01084      90.00000      90.00000     121.00000       0.00000  
topohru45              0.09481      10.00000      10.00000     121.00000       0.00000  
topohru46              0.04259      60.00000      60.00000     121.00000       0.00000  
topohru47              0.08140      10.00000      10.00000     121.00000       0.00000  
topohru48              0.09364      10.00000      10.00000     121.00000       0.00000  
topohru49              0.09016      10.00000      10.00000     121.00000       0.00000  
topohru50              0.11213      10.00000      10.00000     121.00000       0.00000  
topohru51              0.07227      30.00000      30.00000     121.00000       0.00000  
topohru52              0.09921      10.00000      10.00000     121.00000       0.00000  
topohru53              0.07881      30.00000      30.00000     121.00000       0.00000  
topohru54              0.12592      10.00000      10.00000     121.00000       0.00000  
topohru55              0.14545      10.00000      10.00000     121.00000       0.00000  
topohru56              0.13455      10.00000      10.00000     121.00000       0.00000  
topohru57              0.13656      10.00000      10.00000     121.00000       0.00000  
topohru58              0.14426      10.00000      10.00000     121.00000       0.00000  
topohru59              0.13997      10.00000      10.00000     121.00000       0.00000  
topohru60              0.05240      30.00000      30.00000     121.00000       0.00000  
topohru61              0.05576      30.00000      30.00000     121.00000       0.00000  
topohru62              0.05351      30.00000      30.00000     121.00000       0.00000  
topohru63              0.06375      30.00000      30.00000     121.00000       0.00000  
topohru64              0.05034      30.00000      30.00000     121.00000       0.00000  
topohru65              0.07645      30.00000      30.00000     121.00000       0.00000  
topohru66              0.04717      60.00000      60.00000     121.00000       0.00000  
topohru67              0.06998      30.00000      30.00000     121.00000       0.00000  
topohru68              0.11593      10.00000      10.00000     121.00000       0.00000  
topohru69              0.08868      10.00000      10.00000     121.00000       0.00000  
topohru70              0.08585      10.00000      10.00000     121.00000       0.00000  
topohru71              0.09082      10.00000      10.00000     121.00000       0.00000  
topohru72              0.09441      10.00000      10.00000     121.00000       0.00000  
topohru73              0.02597      90.00000      90.00000     121.00000       0.00000  
topohru74              0.03906      60.00000      60.00000     121.00000       0.00000  
topohru75              0.02079      90.00000      90.00000     121.00000       0.00000  
topohru76              0.12667      10.00000      10.00000     121.00000       0.00000  
topohru77              0.13925      10.00000      10.00000     121.00000       0.00000  
topohru78              0.13417      10.00000      10.00000     121.00000       0.00000  
topohru79              0.01810      90.00000      90.00000     121.00000       0.00000  
topohru80              0.09043      10.00000      10.00000     121.00000       0.00000  
topohru81              0.11916      10.00000      10.00000     121.00000       0.00000  
topohru82              0.11089      10.00000      10.00000     121.00000       0.00000  
topohru83              0.10211      10.00000      10.00000     121.00000       0.00000  
topohru84              0.08919      10.00000      10.00000     121.00000       0.00000  
topohru85              0.05256      30.00000      30.00000     121.00000       0.00000  
topohru86              0.09655      10.00000      10.00000     121.00000       0.00000  
topohru87              0.12088      10.00000      10.00000     121.00000       0.00000  
topohru88              0.09349      10.00000      10.00000     121.00000       0.00000  
topohru89              0.09349      10.00000      10.00000     121.00000       0.00000  
topohru90              0.09373      10.00000      10.00000     121.00000       0.00000  
topohru91              0.09167      10.00000      10.00000     121.00000       0.00000  
toportu010             0.08644     121.00000     121.00000     121.00000       0.00000  
toportu020             0.07790     121.00000     121.00000     121.00000       0.00000  
toportu030             0.06012     121.00000     121.00000     121.00000       0.00000  
toportu040             0.05929     121.00000     121.00000     121.00000       0.00000  
toportu050             0.05121     121.00000     121.00000     121.00000       0.00000  
toportu060             0.06053     121.00000     121.00000     121.00000       0.00000  
toportu070             0.05240     121.00000     121.00000     121.00000       0.00000  
toportu080             0.05576     121.00000     121.00000     121.00000       0.00000  
toportu090             0.06202     121.00000     121.00000     121.00000       0.00000  
toportu100             0.04874     121.00000     121.00000     121.00000       0.00000  
toportu110             0.11313     121.00000     121.00000     121.00000       0.00000  
toportu120             0.08521     121.00000     121.00000     121.00000       0.00000  
toportu130             0.05700     121.00000     121.00000     121.00000       0.00000  
toportu140             0.05252     121.00000     121.00000     121.00000       0.00000  
toportu150             0.05351     121.00000     121.00000     121.00000       0.00000  
toportu160             0.08936     121.00000     121.00000     121.00000       0.00000  
toportu170             0.06065     121.00000     121.00000     121.00000       0.00000  
toportu180             0.06102     121.00000     121.00000     121.00000       0.00000  
toportu190             0.06823     121.00000     121.00000     121.00000       0.00000  
toportu200             0.06807     121.00000     121.00000     121.00000       0.00000  
toportu210             0.02597     121.00000     121.00000     121.00000       0.00000  
toportu220             0.03020     121.00000     121.00000     121.00000       0.00000  
toportu230             0.05789     121.00000     121.00000     121.00000       0.00000  
toportu240             0.06073     121.00000     121.00000     121.00000       0.00000  
toportu250             0.00000     121.00000     121.00000     121.00000       0.00000  
toportu260             0.06494     121.00000     121.00000     121.00000       0.00000  
toportu270             0.08163     121.00000     121.00000     121.00000       0.00000  
toportu280             0.04673     121.00000     121.00000     121.00000       0.00000  
toportu290             0.03920     121.00000     121.00000     121.00000       0.00000  
toportu300             0.01084     121.00000     121.00000     121.00000       0.00000  
toportu310             0.03785     121.00000     121.00000     121.00000       0.00000  
toportu320             0.08140     121.00000     121.00000     121.00000       0.00000  
toportu330             0.08660     121.00000     121.00000     121.00000       0.00000  
toportu340             0.05034     121.00000     121.00000     121.00000       0.00000  
toportu350             0.11213     121.00000     121.00000     121.00000       0.00000  
toportu360             0.07501     121.00000     121.00000     121.00000       0.00000  
toportu370             0.09498     121.00000     121.00000     121.00000       0.00000  
toportu380             0.06375     121.00000     121.00000     121.00000       0.00000  
toportu390             0.06388     121.00000     121.00000     121.00000       0.00000  
toportu400             0.06013     121.00000     121.00000     121.00000       0.00000  
toportu410             0.07090     121.00000     121.00000     121.00000       0.00000  
toportu420             0.07227     121.00000     121.00000     121.00000       0.00000  
toportu430             0.11588     121.00000     121.00000     121.00000       0.00000  
toportu440             0.03906     121.00000     121.00000     121.00000       0.00000  
toportu450             0.09364     121.00000     121.00000     121.00000       0.00000  
toportu460             0.09016     121.00000     121.00000     121.00000       0.00000  
toportu470             0.07634     121.00000     121.00000     121.00000       0.00000  
toportu480             0.04259     121.00000     121.00000     121.00000       0.00000  
toportu490             0.10248     121.00000     121.00000     121.00000       0.00000  
toportu500             0.08832     121.00000     121.00000     121.00000       0.00000  
toportu510             0.09481     121.00000     121.00000     121.00000       0.00000  
toportu520             0.05655     121.00000     121.00000     121.00000       0.00000  
toportu530             0.01810     121.00000     121.00000     121.00000       0.00000  
toportu540             0.02079     121.00000     121.00000     121.00000       0.00000  
toportu550             0.12403     121.00000     121.00000     121.00000       0.00000  
toportu560             0.11181     121.00000     121.00000     121.00000       0.00000  
toportu570             0.09043     121.00000     121.00000     121.00000       0.00000  
toportu580             0.09349     121.00000     121.00000     121.00000       0.00000  
toportu590             0.12667     121.00000     121.00000     121.00000       0.00000  
toportu600             0.04717     121.00000     121.00000     121.00000       0.00000  
toportu610             0.06998     121.00000     121.00000     121.00000       0.00000  
toportu620             0.08585     121.00000     121.00000     121.00000       0.00000  
toportu630             0.07881     121.00000     121.00000     121.00000       0.00000  
toportu640             0.12970     121.00000     121.00000     121.00000       0.00000  
toportu650             0.14545     121.00000     121.00000     121.00000       0.00000  
toportu660             0.12592     121.00000     121.00000     121.00000       0.00000  
toportu670             0.13455     121.00000     121.00000     121.00000       0.00000  
toportu680             0.10006     121.00000     121.00000     121.00000       0.00000  
toportu690             0.14426     121.00000     121.00000     121.00000       0.00000  
toportu700             0.13925     121.00000     121.00000     121.00000       0.00000  
toportu710             0.13417     121.00000     121.00000     121.00000       0.00000  
toportu720             0.11593     121.00000     121.00000     121.00000       0.00000  
toportu730             0.14392     121.00000     121.00000     121.00000       0.00000  
toportu740             0.13656     121.00000     121.00000     121.00000       0.00000  
toportu750             0.08868     121.00000     121.00000     121.00000       0.00000  
toportu760             0.09532     121.00000     121.00000     121.00000       0.00000  
toportu770             0.13997     121.00000     121.00000     121.00000       0.00000  
toportu780             0.07645     121.00000     121.00000     121.00000       0.00000  
toportu790             0.09921     121.00000     121.00000     121.00000       0.00000  
toportu800             0.11916     121.00000     121.00000     121.00000       0.00000  
toportu810             0.05256     121.00000     121.00000     121.00000       0.00000  
toportu820             0.12088     121.00000     121.00000     121.00000       0.00000  
toportu830             0.09655     121.00000     121.00000     121.00000       0.00000  
toportu840             0.09349     121.00000     121.00000     121.00000       0.00000  
toportu850             0.09373     121.00000     121.00000     121.00000       0.00000  
toportu860             0.09167     121.00000     121.00000     121.00000       0.00000  
toportu870             0.08919     121.00000     121.00000     121.00000       0.00000  
toportu880             0.11089     121.00000     121.00000     121.00000       0.00000  
toportu890             0.09441     121.00000     121.00000     121.00000       0.00000  
toportu900             0.10211     121.00000     121.00000     121.00000       0.00000  
toportu910             0.09082     121.00000     121.00000     121.00000       0.00000  
