weather-wgn.cli: written by SWAT+ editor v1.2.3 on 2020-07-08 09:05
114n372e                       11.39640      37.18750    2068.00000        32  
 tmp_max_ave   tmp_min_ave    tmp_max_sd    tmp_min_sd       pcp_ave        pcp_sd      pcp_skew       wet_dry       wet_wet      pcp_days       pcp_hhr       slr_ave       dew_ave       wnd_ave  
    27.55320      10.03860       1.84282       2.07453       2.75358       0.79461      14.84040       0.01983       0.32353       1.06250       5.79907      21.46660       0.37664       2.10320  
    28.98780      11.84360       2.10507       2.17820       2.55464       0.57578      10.66610       0.03016       0.26190       1.31250       3.73947      22.63170       0.31974       2.21943  
    30.21860      13.42140       2.50690       2.02902      17.66010       2.99559      12.15490       0.08105       0.39869       4.78125      18.36750      23.41860       0.34048       2.17224  
    29.78570      13.98840       2.34632       1.89705      29.34120       4.01524       8.02595       0.09715       0.37234       5.87500      20.10270      24.52030       0.36592       2.30543  
    28.68260      13.61320       2.41300       1.55664      51.63220       4.20301       4.69811       0.23891       0.40988      12.65620      15.62360      24.29610       0.50124       2.19779  
    26.57000      12.16810       2.77074       1.32210      94.26320       4.33452       3.07020       0.48889       0.43768      21.56250      14.39190      22.71560       0.71360       1.79565  
    22.24900      11.76880       3.44350       1.48582     236.96800       7.88598       2.79245       0.96875       0.48750      30.00000      28.68110      17.98940       0.85775       1.39512  
    21.75390      11.23580       2.60993       1.74028     254.64900       7.74338       2.69031       0.83333       0.49796      30.62500      22.76550      18.76010       0.88648       1.34538  
    23.90490      10.18830       1.71344       1.50976     121.77200       4.74076       2.42488       0.38919       0.47355      24.21880      12.45130      24.57410       0.80787       1.68891  
    24.71080       9.44587       1.88881       1.56024      38.20060       4.26075       8.45581       0.09270       0.43929       8.75000      21.29950      23.80440       0.67866       1.93954  
    26.33440       9.50480       1.83560       1.76356      10.40980       1.53922       6.92475       0.05882       0.31183       2.90625       7.39783      21.62270       0.53938       1.92332  
    26.73510       9.44429       1.57684       1.96638       4.80097       1.03541       8.90345       0.02229       0.33333       1.31250       5.21447      20.89660       0.42895       2.00522  
114n375e                       11.39640      37.50000    2169.00000        32  
 tmp_max_ave   tmp_min_ave    tmp_max_sd    tmp_min_sd       pcp_ave        pcp_sd      pcp_skew       wet_dry       wet_wet      pcp_days       pcp_hhr       slr_ave       dew_ave       wnd_ave  
    28.51180       9.53637       1.92411       2.39375       1.59723       0.36803       8.74939       0.01451       0.33333       0.84375       1.75077      22.12270       0.37028       1.83033  
    30.10350      11.54770       2.19655       2.30313       1.96019       0.43087       7.99759       0.02414       0.32353       1.06250       2.01934      23.45460       0.32083       1.91949  
    31.52720      13.28360       2.57923       2.13064       9.90786       2.05227      12.31790       0.04615       0.34146       2.56250      13.00640      24.69790       0.33827       1.96895  
    31.14840      13.88150       2.33612       1.86203      13.22890       2.23265       8.77261       0.04734       0.36170       2.93750      13.22510      26.16080       0.35441       2.08012  
    30.43650      13.19000       2.34152       1.61474      16.08740       2.50823       8.05994       0.07746       0.32540       3.93750      14.02540      25.86740       0.44620       2.00122  
    28.41690      12.24660       3.04099       1.44636      49.07030       3.31654       3.73672       0.22037       0.41667      13.12500      11.62220      23.66150       0.64158       1.85233  
    23.52750      12.14120       3.85883       1.46313     200.30900       6.80468       2.38991       0.80769       0.48031      28.56250      18.67150      19.65700       0.81848       1.48002  
    22.86960      11.13950       2.84870       1.78396     205.24900       7.10571       2.94660       0.82258       0.48280      29.06250      23.94790      20.54370       0.85657       1.30869  
    25.28160       9.27426       1.99239       1.62364      56.70090       2.97775       2.69131       0.26852       0.42803      16.50000       7.38882      25.57460       0.76713       1.47437  
    26.03320       8.87567       1.89918       1.49792      14.43360       2.55551      12.17790       0.05355       0.39098       4.15625      17.01870      25.36810       0.62692       1.76058  
    27.66160       9.10174       1.87174       1.93322       2.44937       0.75235      15.44780       0.02155       0.28125       1.00000       5.60920      23.03800       0.50532       1.79428  
    27.73900       8.85196       1.60715       2.14694       1.08373       0.27926      10.33630       0.01665       0.26087       0.71875       1.54770      21.93200       0.41687       1.80957  
114n378e                       11.39640      37.81250    2247.00000        32  
 tmp_max_ave   tmp_min_ave    tmp_max_sd    tmp_min_sd       pcp_ave        pcp_sd      pcp_skew       wet_dry       wet_wet      pcp_days       pcp_hhr       slr_ave       dew_ave       wnd_ave  
    29.44570       8.70325       2.31956       2.33056       3.33533       0.65207       9.14293       0.02116       0.36170       1.46875       3.65957      22.93280       0.37253       1.64141  
    31.14590      10.65250       2.69683       2.06389       3.03047       0.59467       7.74715       0.02791       0.34091       1.37500       3.06776      24.27760       0.32953       1.77615  
    32.32920      12.53720       3.13446       1.86125      11.68120       1.88300       9.20412       0.04875       0.41818       3.43750       9.29281      25.46460       0.34533       1.91134  
    32.20290      13.26110       2.82153       1.49803      13.43860       2.07101       7.02369       0.05821       0.33663       3.15625       8.24678      26.35180       0.35652       1.92549  
    31.32910      12.77850       2.81367       1.37625      14.25590       2.34727       8.99143       0.07193       0.35659       4.03125      11.89490      25.92930       0.40724       1.78851  
    29.23920      12.19840       3.47835       1.19298      63.34980       4.87739       3.73961       0.19454       0.43659      12.81250      12.24820      22.61120       0.59282       1.75162  
    23.14210      11.96700       4.40187       1.29039     324.08600       9.17821       1.44141       0.65672       0.48324      28.90620      20.27750      19.48320       0.82452       1.41090  
    22.25640      10.68430       3.14704       1.72245     293.03000       8.64252       1.82674       0.65854       0.49422      29.71880      21.38420      20.38510       0.87011       1.20607  
    25.11790       8.76769       2.29369       1.49649      55.61500       3.24286       3.22645       0.22198       0.42742      15.50000      10.09970      25.35900       0.75792       1.33004  
    26.59220       8.25218       2.24952       1.46961      12.62840       1.97266      10.34140       0.04920       0.38136       3.68750      12.88390      25.81450       0.60667       1.54000  
    28.53900       8.39090       2.05547       1.86325       2.65158       0.79792      14.65830       0.02368       0.19355       0.96875       5.43557      24.10220       0.48481       1.64592  
    28.47970       7.95388       1.89517       2.10531       1.46537       0.35442      10.51060       0.01566       0.34615       0.81250       2.17615      22.86830       0.41265       1.61626  
117n372e                       11.70860      37.18750    1811.00000        32  
 tmp_max_ave   tmp_min_ave    tmp_max_sd    tmp_min_sd       pcp_ave        pcp_sd      pcp_skew       wet_dry       wet_wet      pcp_days       pcp_hhr       slr_ave       dew_ave       wnd_ave  
    31.33650      11.69060       2.08871       1.74843       0.42239       0.17983      15.19930       0.00508       0.25000       0.25000       1.18841      23.12460       0.33445       2.10792  
    33.02270      13.44310       2.41436       2.05417       0.18266       0.09238      15.85080       0.00334       0.20000       0.15625       0.67171      24.67010       0.28253       2.19922  
    34.50300      15.03760       2.81356       1.88738       6.06850       2.23306      20.87450       0.02623       0.28205       1.21875      20.64460      25.61580       0.29175       2.19443  
    34.30800      16.08500       2.77598       1.91007       8.98505       2.24307      11.62250       0.04274       0.33803       2.21875      12.66940      26.35370       0.31056       2.24797  
    32.86030      15.84760       2.74950       1.62322      18.37540       2.51433       7.12687       0.10419       0.31410       4.87500      11.26770      26.10750       0.44335       2.15628  
    30.02890      14.28750       3.17599       1.18555      44.92350       3.10133       5.59519       0.29065       0.40171      14.62500      12.61110      24.56820       0.66065       1.96667  
    24.96070      13.04490       3.75295       1.36110     136.22200       5.78136       3.21021       0.75424       0.47597      27.31250      17.79250      21.45650       0.82078       1.51341  
    24.48330      12.38300       2.90575       1.39753     136.87000       5.70985       3.56218       0.84507       0.48643      28.78120      17.67360      22.07770       0.85401       1.41697  
    27.31150      11.81310       2.05349       1.12207      44.93080       2.23243       3.16782       0.27960       0.42806      17.59380       6.42932      25.71910       0.75742       1.77833  
    28.88720      11.57480       2.41951       1.25537      12.70790       2.40329      12.67350       0.05562       0.38760       4.03125      15.38930      25.27900       0.60404       2.00729  
    30.83870      11.37010       2.06199       1.54931       0.54046       0.15942      10.82340       0.01271       0.18750       0.50000       0.88740      23.29670       0.46295       1.98673  
    30.71930      11.09470       1.76455       1.53069       0.27517       0.14663      22.40900       0.00511       0.16667       0.18750       1.39149      22.39630       0.37251       2.03828  
117n375e                       11.70860      37.50000    1833.00000        32  
 tmp_max_ave   tmp_min_ave    tmp_max_sd    tmp_min_sd       pcp_ave        pcp_sd      pcp_skew       wet_dry       wet_wet      pcp_days       pcp_hhr       slr_ave       dew_ave       wnd_ave  
    31.50880      10.37740       2.40710       1.98468       0.54301       0.18216      12.25150       0.00919       0.30769       0.40625       0.94448      23.44160       0.33972       1.96046  
    33.27750      12.29320       2.79494       2.10109       0.35427       0.15637      15.96150       0.00446       0.37500       0.25000       1.19742      25.02170       0.29209       2.06640  
    34.41170      14.08970       3.13654       1.92392       4.19200       1.33210      15.50130       0.02194       0.31429       1.09375       8.75809      26.10320       0.30229       2.14650  
    34.45590      15.13190       2.88035       1.74027       6.60821       1.54651      11.10010       0.03297       0.32000       1.56250       9.50549      26.94910       0.31518       2.15228  
    33.57200      14.98080       2.95376       1.49332      10.55890       1.94929       9.99495       0.05746       0.25581       2.68750      12.42600      26.67700       0.40732       2.13284  
    30.45260      13.66730       3.66681       1.21104      54.00760       3.50727       3.44464       0.20965       0.41568      13.15620      10.68310      24.31360       0.62180       2.11789  
    24.56150      12.84010       4.16365       1.42798     236.50100       7.16826       2.14544       0.73611       0.48370      28.75000      23.11160      21.32150       0.81867       1.68658  
    24.00110      11.85570       3.17771       1.57240     217.83800       7.01800       2.49035       0.77193       0.48663      29.21880      20.11770      21.85580       0.85633       1.43609  
    27.54830      10.66140       2.42529       1.26093      44.12760       2.46246       3.04837       0.23188       0.42138      14.90620       7.44650      25.71980       0.74293       1.57167  
    28.95000      10.54940       2.36347       1.34129      11.02530       2.20669      14.38830       0.05299       0.35238       3.28125      16.15830      25.89690       0.57241       1.83821  
    30.93870      10.31070       2.19051       1.63893       0.55715       0.27501      20.32430       0.00949       0.25000       0.37500       2.13680      24.01230       0.44962       1.89317  
    30.85780       9.81365       1.92734       1.69871       0.05222       0.03078      18.15360       0.00306       0.00000       0.09375       0.20368      22.95090       0.37464       1.90327  
117n378e                       11.70860      37.81250    2054.00000        32  
 tmp_max_ave   tmp_min_ave    tmp_max_sd    tmp_min_sd       pcp_ave        pcp_sd      pcp_skew       wet_dry       wet_wet      pcp_days       pcp_hhr       slr_ave       dew_ave       wnd_ave  
    29.38060       8.24937       2.59533       2.09422       2.35949       0.52693       9.81884       0.01881       0.34286       1.09375       3.14046      23.48700       0.36691       1.86497  
    31.10240      10.20960       3.13070       2.00823       1.57438       0.40449      12.14000       0.02069       0.38235       1.06250       2.71809      24.79920       0.32161       1.99098  
    32.16600      12.20380       3.42988       1.83437      11.37910       1.81523       9.64054       0.06629       0.35043       3.65625       9.42048      25.41900       0.33221       2.09011  
    32.34760      13.27840       3.17198       1.49020      15.72820       2.13689       7.75232       0.09320       0.34940       5.18750      11.29890      25.77970       0.34549       2.02708  
    32.12600      13.22290       3.18107       1.44125      24.60570       2.74533       7.50145       0.12968       0.39506       7.59375      14.62740      25.43010       0.40094       1.93628  
    28.85550      12.28050       3.90913       1.21593     116.67200       6.74708       2.97012       0.31856       0.44073      18.71880      18.57600      21.37520       0.61834       1.93611  
    22.05780      11.93430       4.36540       1.25645     520.68700      12.20210       1.07141       0.80000       0.49638      30.21880      25.76590      18.29780       0.85889       1.63160  
    21.50430      10.79430       3.19614       1.65838     457.57600      10.83340       1.33677       0.75000       0.49898      30.62500      23.06170      19.14360       0.89736       1.35854  
    25.32300       9.01406       2.49379       1.43109      99.89810       4.33507       2.59669       0.25387       0.45369      19.90620      11.97720      24.24850       0.76958       1.36801  
    26.87650       8.58234       2.41830       1.48878      25.72860       2.89591       7.95876       0.06897       0.39444       5.62500      17.40260      25.37810       0.58617       1.63177  
    28.78140       8.27229       2.19045       1.73690       3.79903       0.77286      10.49270       0.03520       0.27451       1.59375       4.87772      24.10720       0.46639       1.77272  
    28.78000       7.65734       2.03290       1.83504       1.33160       0.37255      12.49160       0.01561       0.26087       0.71875       2.61354      23.15790       0.40119       1.76096  
120n372e                       12.02080      37.18750    1784.00000        32  
 tmp_max_ave   tmp_min_ave    tmp_max_sd    tmp_min_sd       pcp_ave        pcp_sd      pcp_skew       wet_dry       wet_wet      pcp_days       pcp_hhr       slr_ave       dew_ave       wnd_ave  
    31.96880      11.95410       2.50798       1.61436       0.57399       0.28272      18.72080       0.00508       0.28571       0.21875       2.24585      23.17800       0.32364       2.29580  
    33.76280      13.64360       3.01786       1.95927       0.25594       0.10374      12.78170       0.00670       0.12500       0.25000       0.58339      24.54060       0.27365       2.38336  
    34.90100      15.31740       3.29329       1.88904       7.21187       2.31354      22.84820       0.03672       0.36364       2.06250      22.61710      24.82280       0.27992       2.36344  
    34.99240      16.72340       3.25273       1.95601      12.26270       2.52083      12.31410       0.06613       0.28571       3.06250      16.47850      24.52090       0.29939       2.33619  
    33.38520      16.74400       3.45138       1.73697      28.23970       2.67388       5.44213       0.17539       0.35916       8.87500      10.73660      23.99050       0.43684       2.20299  
    29.30970      14.99330       3.79148       1.15148     109.91800       5.38560       3.56292       0.45486       0.44643      21.00000      18.35730      22.42270       0.67999       2.02720  
    23.57230      13.78050       3.77670       1.22028     265.33300       8.37825       2.38018       0.66667       0.49272      30.06250      19.78600      19.55040       0.85441       1.61266  
    23.49540      13.18830       3.10782       1.25064     250.79600       7.85880       2.63223       0.93750       0.49488      30.50000      22.52810      20.41990       0.88525       1.49683  
    27.24620      12.77340       2.46842       1.16115      72.91390       3.33943       4.25518       0.34902       0.45816      22.03120      15.31060      24.54300       0.77261       1.81532  
    29.54250      12.90940       2.93053       1.40677      21.38080       2.68407      10.05260       0.09209       0.40724       6.90625      16.47620      23.66500       0.58255       2.07618  
    31.62130      12.16470       2.30912       1.52621       1.33338       0.30273       9.02975       0.02148       0.24138       0.90625       1.56032      22.63260       0.42677       2.13402  
    31.54460      11.57430       1.97667       1.36735       0.25387       0.10676      14.57150       0.00614       0.14286       0.21875       0.67021      22.27330       0.35152       2.20723  
120n375e                       12.02080      37.50000    1784.00000        32  
 tmp_max_ave   tmp_min_ave    tmp_max_sd    tmp_min_sd       pcp_ave        pcp_sd      pcp_skew       wet_dry       wet_wet      pcp_days       pcp_hhr       slr_ave       dew_ave       wnd_ave  
    30.70870      10.02940       2.57410       1.79977       0.82778       0.24967      11.68860       0.01127       0.18750       0.50000       1.38788      23.13680       0.34342       2.12323  
    32.48210      11.93690       3.07166       2.03474       0.56149       0.21335      12.63690       0.00784       0.27273       0.34375       1.16197      24.32570       0.29557       2.21425  
    33.55020      13.74440       3.31900       1.94730       7.16169       1.58878      13.09180       0.04239       0.31944       2.25000      10.15860      24.57260       0.30423       2.22972  
    33.66290      15.14570       3.08298       1.91490      11.77960       2.04418       9.73131       0.06682       0.35514       3.34375      11.23880      24.60040       0.31891       2.21512  
    32.76780      15.14630       3.15840       1.71638      22.46310       2.55727       6.32703       0.14249       0.34247       6.84375      10.44700      24.81250       0.41672       2.14935  
    29.00160      13.57220       3.75621       1.27197     105.79900       5.39548       3.05729       0.34210       0.43621      18.12500      17.83460      22.43650       0.65479       2.05130  
    23.00320      12.79250       4.01434       1.36515     318.39600       8.73136       2.25955       0.80000       0.48753      30.06250      25.63920      19.19790       0.85588       1.69636  
    22.68060      11.92810       3.11822       1.58014     272.45000       7.89073       2.40717       0.77778       0.49487      30.43750      21.23340      19.91960       0.88755       1.46457  
    26.48240      10.78110       2.38061       1.41165      71.89290       3.13402       3.87647       0.35216       0.44461      20.59380      12.82920      24.74420       0.76660       1.61537  
    28.06910      11.02090       2.42583       1.55843      20.91520       2.79018      11.21700       0.07116       0.42927       6.40625      16.87510      24.63370       0.56931       1.91005  
    30.00650      10.42170       2.27806       1.62437       2.16256       0.43449       7.80110       0.02720       0.26829       1.28125       1.79043      23.19330       0.43696       1.99685  
    30.06620       9.75112       2.08846       1.55823       0.60559       0.22997      14.10210       0.00513       0.30000       0.31250       1.53388      22.49830       0.36767       2.05100  
120n378e                       12.02080      37.81250    1815.00000        32  
 tmp_max_ave   tmp_min_ave    tmp_max_sd    tmp_min_sd       pcp_ave        pcp_sd      pcp_skew       wet_dry       wet_wet      pcp_days       pcp_hhr       slr_ave       dew_ave       wnd_ave  
    29.22910       8.03491       2.31685       2.01644       3.07370       0.66782       8.64832       0.01883       0.33333       1.12500       2.94639      23.10620       0.36941       1.80256  
    31.04920      10.01590       2.71809       2.05475       3.18051       0.77409      10.64540       0.02914       0.32609       1.43750       4.07833      24.18130       0.32477       1.87909  
    32.20260      12.11480       3.09826       1.94485      19.89490       2.60508       7.63565       0.09004       0.33962       4.96875      13.52130      24.33660       0.33313       1.91694  
    31.72610      13.48330       2.90015       1.76208      28.28160       2.93124       6.27106       0.12483       0.38461       7.71875      13.45950      24.46650       0.34763       1.98225  
    30.47820      13.32680       2.72711       1.68862      39.05450       3.57242       5.71676       0.17062       0.38486       9.90625      16.22440      24.86490       0.40432       2.01894  
    27.32450      12.30350       3.19101       1.40315     138.45300       7.47790       2.65608       0.33333       0.44724      18.65620      18.68170      21.25320       0.62511       2.01273  
    21.72790      12.19480       3.67779       1.29921     508.96900      10.95550       1.08673       0.90909       0.48969      30.31250      26.27540      17.94270       0.85936       1.64699  
    21.27940      11.06900       2.84770       1.72994     438.88800       9.49329       1.42558       0.91667       0.49592      30.62500      23.72800      18.82720       0.89857       1.40942  
    24.54510       8.98067       2.06363       1.68056     108.39200       4.27556       2.04803       0.29180       0.45954      20.46880      10.94080      24.18520       0.76563       1.51364  
    26.24600       8.93540       2.00749       1.67972      35.14260       3.57868       6.98738       0.07833       0.42035       7.06250      17.79670      24.89840       0.56865       1.68887  
    28.31030       8.39974       1.98608       1.78017       7.61230       1.30915       8.25327       0.03950       0.37838       2.31250       6.54588      23.60910       0.45028       1.71814  
    28.33030       7.59486       1.89638       1.81210       3.34203       0.88699      10.61200       0.01677       0.33333       0.93750       5.01500      22.71740       0.39411       1.73713  
