wnd.cli: Wind speed file names - file written by SWAT+ editor 2020-05-31 10:37:01.785649
filename
robwind.wnd
